
-------------------------------------------------------------------------
|    ___ _   _ ___                                                      |
|   / __| | | |_  )   Release 7.1.0 "Blackbird"                         |
|   \__ \ |_| |/ /                                                      |
|   |___/\___//___|   Aerodynamic Shape Optimization Script             |
|                                                                       |
-------------------------------------------------------------------------
| SU2 Project Website: https://su2code.github.io                        |
|                                                                       |
| The SU2 Project is maintained by the SU2 Foundation                   |
| (http://su2foundation.org)                                            |
-------------------------------------------------------------------------
| Copyright 2012-2020, SU2 Contributors (cf. AUTHORS.md)                |
|                                                                       |
| SU2 is free software; you can redistribute it and/or                  |
| modify it under the terms of the GNU Lesser General Public            |
| License as published by the Free Software Foundation; either          |
| version 2.1 of the License, or (at your option) any later version.    |
|                                                                       |
| SU2 is distributed in the hope that it will be useful,                |
| but WITHOUT ANY WARRANTY; without even the implied warranty of        |
| MERCHANTABILITY or FITNESS FOR A PARTICULAR PURPOSE. See the GNU      |
| Lesser General Public License for more details.                       |
|                                                                       |
| You should have received a copy of the GNU Lesser General Public      |
| License along with SU2. If not, see <http://www.gnu.org/licenses/>.   |
-------------------------------------------------------------------------
Found: NACA2412_3D_combined.su2
New Project: ./
Sequential Least SQuares Programming (SLSQP) parameters:
Number of design variables: 198 ( 198 ) 
Objective function scaling factor: [1.0]
Maximum number of iterations: 30
Requested accuracy: 1e-15
Initial guess for the independent variable(s): [0.0, 0.0, 0.0, 0.0, 0.0, 0.0, 0.0, 0.0, 0.0, 0.0, 0.0, 0.0, 0.0, 0.0, 0.0, 0.0, 0.0, 0.0, 0.0, 0.0, 0.0, 0.0, 0.0, 0.0, 0.0, 0.0, 0.0, 0.0, 0.0, 0.0, 0.0, 0.0, 0.0, 0.0, 0.0, 0.0, 0.0, 0.0, 0.0, 0.0, 0.0, 0.0, 0.0, 0.0, 0.0, 0.0, 0.0, 0.0, 0.0, 0.0, 0.0, 0.0, 0.0, 0.0, 0.0, 0.0, 0.0, 0.0, 0.0, 0.0, 0.0, 0.0, 0.0, 0.0, 0.0, 0.0, 0.0, 0.0, 0.0, 0.0, 0.0, 0.0, 0.0, 0.0, 0.0, 0.0, 0.0, 0.0, 0.0, 0.0, 0.0, 0.0, 0.0, 0.0, 0.0, 0.0, 0.0, 0.0, 0.0, 0.0, 0.0, 0.0, 0.0, 0.0, 0.0, 0.0, 0.0, 0.0, 0.0, 0.0, 0.0, 0.0, 0.0, 0.0, 0.0, 0.0, 0.0, 0.0, 0.0, 0.0, 0.0, 0.0, 0.0, 0.0, 0.0, 0.0, 0.0, 0.0, 0.0, 0.0, 0.0, 0.0, 0.0, 0.0, 0.0, 0.0, 0.0, 0.0, 0.0, 0.0, 0.0, 0.0, 0.0, 0.0, 0.0, 0.0, 0.0, 0.0, 0.0, 0.0, 0.0, 0.0, 0.0, 0.0, 0.0, 0.0, 0.0, 0.0, 0.0, 0.0, 0.0, 0.0, 0.0, 0.0, 0.0, 0.0, 0.0, 0.0, 0.0, 0.0, 0.0, 0.0, 0.0, 0.0, 0.0, 0.0, 0.0, 0.0, 0.0, 0.0, 0.0, 0.0, 0.0, 0.0, 0.0, 0.0, 0.0, 0.0, 0.0, 0.0, 0.0, 0.0, 0.0, 0.0, 0.0, 0.0, 0.0, 0.0, 0.0, 0.0, 0.0, 0.0, 0.0, 0.0, 0.0, 0.0, 0.0, 0.0]
Lower and upper bound for each independent variable: [(-1000.0, 1000.0), (-1000.0, 1000.0), (-1000.0, 1000.0), (-1000.0, 1000.0), (-1000.0, 1000.0), (-1000.0, 1000.0), (-1000.0, 1000.0), (-1000.0, 1000.0), (-1000.0, 1000.0), (-1000.0, 1000.0), (-1000.0, 1000.0), (-1000.0, 1000.0), (-1000.0, 1000.0), (-1000.0, 1000.0), (-1000.0, 1000.0), (-1000.0, 1000.0), (-1000.0, 1000.0), (-1000.0, 1000.0), (-1000.0, 1000.0), (-1000.0, 1000.0), (-1000.0, 1000.0), (-1000.0, 1000.0), (-1000.0, 1000.0), (-1000.0, 1000.0), (-1000.0, 1000.0), (-1000.0, 1000.0), (-1000.0, 1000.0), (-1000.0, 1000.0), (-1000.0, 1000.0), (-1000.0, 1000.0), (-1000.0, 1000.0), (-1000.0, 1000.0), (-1000.0, 1000.0), (-1000.0, 1000.0), (-1000.0, 1000.0), (-1000.0, 1000.0), (-1000.0, 1000.0), (-1000.0, 1000.0), (-1000.0, 1000.0), (-1000.0, 1000.0), (-1000.0, 1000.0), (-1000.0, 1000.0), (-1000.0, 1000.0), (-1000.0, 1000.0), (-1000.0, 1000.0), (-1000.0, 1000.0), (-1000.0, 1000.0), (-1000.0, 1000.0), (-1000.0, 1000.0), (-1000.0, 1000.0), (-1000.0, 1000.0), (-1000.0, 1000.0), (-1000.0, 1000.0), (-1000.0, 1000.0), (-1000.0, 1000.0), (-1000.0, 1000.0), (-1000.0, 1000.0), (-1000.0, 1000.0), (-1000.0, 1000.0), (-1000.0, 1000.0), (-1000.0, 1000.0), (-1000.0, 1000.0), (-1000.0, 1000.0), (-1000.0, 1000.0), (-1000.0, 1000.0), (-1000.0, 1000.0), (-1000.0, 1000.0), (-1000.0, 1000.0), (-1000.0, 1000.0), (-1000.0, 1000.0), (-1000.0, 1000.0), (-1000.0, 1000.0), (-1000.0, 1000.0), (-1000.0, 1000.0), (-1000.0, 1000.0), (-1000.0, 1000.0), (-1000.0, 1000.0), (-1000.0, 1000.0), (-1000.0, 1000.0), (-1000.0, 1000.0), (-1000.0, 1000.0), (-1000.0, 1000.0), (-1000.0, 1000.0), (-1000.0, 1000.0), (-1000.0, 1000.0), (-1000.0, 1000.0), (-1000.0, 1000.0), (-1000.0, 1000.0), (-1000.0, 1000.0), (-1000.0, 1000.0), (-1000.0, 1000.0), (-1000.0, 1000.0), (-1000.0, 1000.0), (-1000.0, 1000.0), (-1000.0, 1000.0), (-1000.0, 1000.0), (-1000.0, 1000.0), (-1000.0, 1000.0), (-1000.0, 1000.0), (-1000.0, 1000.0), (-1000.0, 1000.0), (-1000.0, 1000.0), (-1000.0, 1000.0), (-1000.0, 1000.0), (-1000.0, 1000.0), (-1000.0, 1000.0), (-1000.0, 1000.0), (-1000.0, 1000.0), (-1000.0, 1000.0), (-1000.0, 1000.0), (-1000.0, 1000.0), (-1000.0, 1000.0), (-1000.0, 1000.0), (-1000.0, 1000.0), (-1000.0, 1000.0), (-1000.0, 1000.0), (-1000.0, 1000.0), (-1000.0, 1000.0), (-1000.0, 1000.0), (-1000.0, 1000.0), (-1000.0, 1000.0), (-1000.0, 1000.0), (-1000.0, 1000.0), (-1000.0, 1000.0), (-1000.0, 1000.0), (-1000.0, 1000.0), (-1000.0, 1000.0), (-1000.0, 1000.0), (-1000.0, 1000.0), (-1000.0, 1000.0), (-1000.0, 1000.0), (-1000.0, 1000.0), (-1000.0, 1000.0), (-1000.0, 1000.0), (-1000.0, 1000.0), (-1000.0, 1000.0), (-1000.0, 1000.0), (-1000.0, 1000.0), (-1000.0, 1000.0), (-1000.0, 1000.0), (-1000.0, 1000.0), (-1000.0, 1000.0), (-1000.0, 1000.0), (-1000.0, 1000.0), (-1000.0, 1000.0), (-1000.0, 1000.0), (-1000.0, 1000.0), (-1000.0, 1000.0), (-1000.0, 1000.0), (-1000.0, 1000.0), (-1000.0, 1000.0), (-1000.0, 1000.0), (-1000.0, 1000.0), (-1000.0, 1000.0), (-1000.0, 1000.0), (-1000.0, 1000.0), (-1000.0, 1000.0), (-1000.0, 1000.0), (-1000.0, 1000.0), (-1000.0, 1000.0), (-1000.0, 1000.0), (-1000.0, 1000.0), (-1000.0, 1000.0), (-1000.0, 1000.0), (-1000.0, 1000.0), (-1000.0, 1000.0), (-1000.0, 1000.0), (-1000.0, 1000.0), (-1000.0, 1000.0), (-1000.0, 1000.0), (-1000.0, 1000.0), (-1000.0, 1000.0), (-1000.0, 1000.0), (-1000.0, 1000.0), (-1000.0, 1000.0), (-1000.0, 1000.0), (-1000.0, 1000.0), (-1000.0, 1000.0), (-1000.0, 1000.0), (-1000.0, 1000.0), (-1000.0, 1000.0), (-1000.0, 1000.0), (-1000.0, 1000.0), (-1000.0, 1000.0), (-1000.0, 1000.0), (-1000.0, 1000.0), (-1000.0, 1000.0), (-1000.0, 1000.0), (-1000.0, 1000.0), (-1000.0, 1000.0), (-1000.0, 1000.0), (-1000.0, 1000.0), (-1000.0, 1000.0), (-1000.0, 1000.0), (-1000.0, 1000.0), (-1000.0, 1000.0), (-1000.0, 1000.0), (-1000.0, 1000.0)]

  NIT    FC           OBJFUN            GNORM
    1     2     9.486533E-08     4.029836E-06
    2     3     9.001634E-08     1.905386E-06
    3     4     8.628281E-08     1.732620E-06
    4     5     8.284246E-08     1.633988E-06
    5     6     8.130621E-08     1.724932E-06
    6     7     7.644953E-08     1.847346E-06
    7     8     7.328198E-08     1.724570E-06
    8     9     7.058219E-08     1.587085E-06
    9    10     6.497085E-08     1.558298E-06
   10    11     6.007889E-08     1.445108E-06
   11    12     5.851063E-08     1.384405E-06
   12    13     5.711654E-08     1.375521E-06
   13    14     5.574090E-08     1.352705E-06
   14    15     6.269618E-08     1.353955E-06
   15    17     5.446545E-08     1.357432E-06
   16    18     5.289752E-08     1.307288E-06
   17    19     5.109588E-08     1.304446E-06
   18    20     4.884689E-08     1.221574E-06
   19    21     4.833540E-08     1.236804E-06
   20    22     4.748611E-08     1.236820E-06
   21    23     4.575322E-08     1.228301E-06
   22    24     4.517834E-08     1.223263E-06
   23    25     4.472999E-08     1.217785E-06
   24    26     4.418489E-08     1.231711E-06
   25    27     4.288672E-08     1.222862E-06
   26    28     4.251751E-08     1.216963E-06
   27    29     4.229302E-08     1.206064E-06
   28    30     4.206864E-08     1.195595E-06
   29    31     4.158329E-08     1.177570E-06
   30    31     4.158329E-08     1.177762E-06
Iteration limit reached    (Exit mode 9)
            Current function value: 4.158329303e-08
            Iterations: 30
            Function evaluations: 31
            Gradient evaluations: 30

============================================

        Job resource usage summary 

                 Memory (GB)    NCPUs
 Requested  :       110            32
 Used       :         2 (peak)  31.99 (ave)

============================================
