
-------------------------------------------------------------------------
|    ___ _   _ ___                                                      |
|   / __| | | |_  )   Release 7.1.0 "Blackbird"                         |
|   \__ \ |_| |/ /                                                      |
|   |___/\___//___|   Aerodynamic Shape Optimization Script             |
|                                                                       |
-------------------------------------------------------------------------
| SU2 Project Website: https://su2code.github.io                        |
|                                                                       |
| The SU2 Project is maintained by the SU2 Foundation                   |
| (http://su2foundation.org)                                            |
-------------------------------------------------------------------------
| Copyright 2012-2020, SU2 Contributors (cf. AUTHORS.md)                |
|                                                                       |
| SU2 is free software; you can redistribute it and/or                  |
| modify it under the terms of the GNU Lesser General Public            |
| License as published by the Free Software Foundation; either          |
| version 2.1 of the License, or (at your option) any later version.    |
|                                                                       |
| SU2 is distributed in the hope that it will be useful,                |
| but WITHOUT ANY WARRANTY; without even the implied warranty of        |
| MERCHANTABILITY or FITNESS FOR A PARTICULAR PURPOSE. See the GNU      |
| Lesser General Public License for more details.                       |
|                                                                       |
| You should have received a copy of the GNU Lesser General Public      |
| License along with SU2. If not, see <http://www.gnu.org/licenses/>.   |
-------------------------------------------------------------------------
Found: NACA2412_3D_combined.su2
New Project: ./
Sequential Least SQuares Programming (SLSQP) parameters:
Number of design variables: 396 ( 396 ) 
Objective function scaling factor: [1.0]
Maximum number of iterations: 30
Requested accuracy: 1e-15
Initial guess for the independent variable(s): [0.0, 0.0, 0.0, 0.0, 0.0, 0.0, 0.0, 0.0, 0.0, 0.0, 0.0, 0.0, 0.0, 0.0, 0.0, 0.0, 0.0, 0.0, 0.0, 0.0, 0.0, 0.0, 0.0, 0.0, 0.0, 0.0, 0.0, 0.0, 0.0, 0.0, 0.0, 0.0, 0.0, 0.0, 0.0, 0.0, 0.0, 0.0, 0.0, 0.0, 0.0, 0.0, 0.0, 0.0, 0.0, 0.0, 0.0, 0.0, 0.0, 0.0, 0.0, 0.0, 0.0, 0.0, 0.0, 0.0, 0.0, 0.0, 0.0, 0.0, 0.0, 0.0, 0.0, 0.0, 0.0, 0.0, 0.0, 0.0, 0.0, 0.0, 0.0, 0.0, 0.0, 0.0, 0.0, 0.0, 0.0, 0.0, 0.0, 0.0, 0.0, 0.0, 0.0, 0.0, 0.0, 0.0, 0.0, 0.0, 0.0, 0.0, 0.0, 0.0, 0.0, 0.0, 0.0, 0.0, 0.0, 0.0, 0.0, 0.0, 0.0, 0.0, 0.0, 0.0, 0.0, 0.0, 0.0, 0.0, 0.0, 0.0, 0.0, 0.0, 0.0, 0.0, 0.0, 0.0, 0.0, 0.0, 0.0, 0.0, 0.0, 0.0, 0.0, 0.0, 0.0, 0.0, 0.0, 0.0, 0.0, 0.0, 0.0, 0.0, 0.0, 0.0, 0.0, 0.0, 0.0, 0.0, 0.0, 0.0, 0.0, 0.0, 0.0, 0.0, 0.0, 0.0, 0.0, 0.0, 0.0, 0.0, 0.0, 0.0, 0.0, 0.0, 0.0, 0.0, 0.0, 0.0, 0.0, 0.0, 0.0, 0.0, 0.0, 0.0, 0.0, 0.0, 0.0, 0.0, 0.0, 0.0, 0.0, 0.0, 0.0, 0.0, 0.0, 0.0, 0.0, 0.0, 0.0, 0.0, 0.0, 0.0, 0.0, 0.0, 0.0, 0.0, 0.0, 0.0, 0.0, 0.0, 0.0, 0.0, 0.0, 0.0, 0.0, 0.0, 0.0, 0.0, 0.0, 0.0, 0.0, 0.0, 0.0, 0.0, 0.0, 0.0, 0.0, 0.0, 0.0, 0.0, 0.0, 0.0, 0.0, 0.0, 0.0, 0.0, 0.0, 0.0, 0.0, 0.0, 0.0, 0.0, 0.0, 0.0, 0.0, 0.0, 0.0, 0.0, 0.0, 0.0, 0.0, 0.0, 0.0, 0.0, 0.0, 0.0, 0.0, 0.0, 0.0, 0.0, 0.0, 0.0, 0.0, 0.0, 0.0, 0.0, 0.0, 0.0, 0.0, 0.0, 0.0, 0.0, 0.0, 0.0, 0.0, 0.0, 0.0, 0.0, 0.0, 0.0, 0.0, 0.0, 0.0, 0.0, 0.0, 0.0, 0.0, 0.0, 0.0, 0.0, 0.0, 0.0, 0.0, 0.0, 0.0, 0.0, 0.0, 0.0, 0.0, 0.0, 0.0, 0.0, 0.0, 0.0, 0.0, 0.0, 0.0, 0.0, 0.0, 0.0, 0.0, 0.0, 0.0, 0.0, 0.0, 0.0, 0.0, 0.0, 0.0, 0.0, 0.0, 0.0, 0.0, 0.0, 0.0, 0.0, 0.0, 0.0, 0.0, 0.0, 0.0, 0.0, 0.0, 0.0, 0.0, 0.0, 0.0, 0.0, 0.0, 0.0, 0.0, 0.0, 0.0, 0.0, 0.0, 0.0, 0.0, 0.0, 0.0, 0.0, 0.0, 0.0, 0.0, 0.0, 0.0, 0.0, 0.0, 0.0, 0.0, 0.0, 0.0, 0.0, 0.0, 0.0, 0.0, 0.0, 0.0, 0.0, 0.0, 0.0, 0.0, 0.0, 0.0, 0.0, 0.0, 0.0, 0.0, 0.0, 0.0, 0.0, 0.0, 0.0, 0.0, 0.0, 0.0, 0.0, 0.0, 0.0, 0.0, 0.0, 0.0, 0.0, 0.0, 0.0, 0.0, 0.0, 0.0, 0.0, 0.0, 0.0, 0.0, 0.0, 0.0, 0.0, 0.0, 0.0, 0.0, 0.0, 0.0, 0.0, 0.0, 0.0, 0.0, 0.0, 0.0, 0.0]
Lower and upper bound for each independent variable: [(-1000.0, 1000.0), (-1000.0, 1000.0), (-1000.0, 1000.0), (-1000.0, 1000.0), (-1000.0, 1000.0), (-1000.0, 1000.0), (-1000.0, 1000.0), (-1000.0, 1000.0), (-1000.0, 1000.0), (-1000.0, 1000.0), (-1000.0, 1000.0), (-1000.0, 1000.0), (-1000.0, 1000.0), (-1000.0, 1000.0), (-1000.0, 1000.0), (-1000.0, 1000.0), (-1000.0, 1000.0), (-1000.0, 1000.0), (-1000.0, 1000.0), (-1000.0, 1000.0), (-1000.0, 1000.0), (-1000.0, 1000.0), (-1000.0, 1000.0), (-1000.0, 1000.0), (-1000.0, 1000.0), (-1000.0, 1000.0), (-1000.0, 1000.0), (-1000.0, 1000.0), (-1000.0, 1000.0), (-1000.0, 1000.0), (-1000.0, 1000.0), (-1000.0, 1000.0), (-1000.0, 1000.0), (-1000.0, 1000.0), (-1000.0, 1000.0), (-1000.0, 1000.0), (-1000.0, 1000.0), (-1000.0, 1000.0), (-1000.0, 1000.0), (-1000.0, 1000.0), (-1000.0, 1000.0), (-1000.0, 1000.0), (-1000.0, 1000.0), (-1000.0, 1000.0), (-1000.0, 1000.0), (-1000.0, 1000.0), (-1000.0, 1000.0), (-1000.0, 1000.0), (-1000.0, 1000.0), (-1000.0, 1000.0), (-1000.0, 1000.0), (-1000.0, 1000.0), (-1000.0, 1000.0), (-1000.0, 1000.0), (-1000.0, 1000.0), (-1000.0, 1000.0), (-1000.0, 1000.0), (-1000.0, 1000.0), (-1000.0, 1000.0), (-1000.0, 1000.0), (-1000.0, 1000.0), (-1000.0, 1000.0), (-1000.0, 1000.0), (-1000.0, 1000.0), (-1000.0, 1000.0), (-1000.0, 1000.0), (-1000.0, 1000.0), (-1000.0, 1000.0), (-1000.0, 1000.0), (-1000.0, 1000.0), (-1000.0, 1000.0), (-1000.0, 1000.0), (-1000.0, 1000.0), (-1000.0, 1000.0), (-1000.0, 1000.0), (-1000.0, 1000.0), (-1000.0, 1000.0), (-1000.0, 1000.0), (-1000.0, 1000.0), (-1000.0, 1000.0), (-1000.0, 1000.0), (-1000.0, 1000.0), (-1000.0, 1000.0), (-1000.0, 1000.0), (-1000.0, 1000.0), (-1000.0, 1000.0), (-1000.0, 1000.0), (-1000.0, 1000.0), (-1000.0, 1000.0), (-1000.0, 1000.0), (-1000.0, 1000.0), (-1000.0, 1000.0), (-1000.0, 1000.0), (-1000.0, 1000.0), (-1000.0, 1000.0), (-1000.0, 1000.0), (-1000.0, 1000.0), (-1000.0, 1000.0), (-1000.0, 1000.0), (-1000.0, 1000.0), (-1000.0, 1000.0), (-1000.0, 1000.0), (-1000.0, 1000.0), (-1000.0, 1000.0), (-1000.0, 1000.0), (-1000.0, 1000.0), (-1000.0, 1000.0), (-1000.0, 1000.0), (-1000.0, 1000.0), (-1000.0, 1000.0), (-1000.0, 1000.0), (-1000.0, 1000.0), (-1000.0, 1000.0), (-1000.0, 1000.0), (-1000.0, 1000.0), (-1000.0, 1000.0), (-1000.0, 1000.0), (-1000.0, 1000.0), (-1000.0, 1000.0), (-1000.0, 1000.0), (-1000.0, 1000.0), (-1000.0, 1000.0), (-1000.0, 1000.0), (-1000.0, 1000.0), (-1000.0, 1000.0), (-1000.0, 1000.0), (-1000.0, 1000.0), (-1000.0, 1000.0), (-1000.0, 1000.0), (-1000.0, 1000.0), (-1000.0, 1000.0), (-1000.0, 1000.0), (-1000.0, 1000.0), (-1000.0, 1000.0), (-1000.0, 1000.0), (-1000.0, 1000.0), (-1000.0, 1000.0), (-1000.0, 1000.0), (-1000.0, 1000.0), (-1000.0, 1000.0), (-1000.0, 1000.0), (-1000.0, 1000.0), (-1000.0, 1000.0), (-1000.0, 1000.0), (-1000.0, 1000.0), (-1000.0, 1000.0), (-1000.0, 1000.0), (-1000.0, 1000.0), (-1000.0, 1000.0), (-1000.0, 1000.0), (-1000.0, 1000.0), (-1000.0, 1000.0), (-1000.0, 1000.0), (-1000.0, 1000.0), (-1000.0, 1000.0), (-1000.0, 1000.0), (-1000.0, 1000.0), (-1000.0, 1000.0), (-1000.0, 1000.0), (-1000.0, 1000.0), (-1000.0, 1000.0), (-1000.0, 1000.0), (-1000.0, 1000.0), (-1000.0, 1000.0), (-1000.0, 1000.0), (-1000.0, 1000.0), (-1000.0, 1000.0), (-1000.0, 1000.0), (-1000.0, 1000.0), (-1000.0, 1000.0), (-1000.0, 1000.0), (-1000.0, 1000.0), (-1000.0, 1000.0), (-1000.0, 1000.0), (-1000.0, 1000.0), (-1000.0, 1000.0), (-1000.0, 1000.0), (-1000.0, 1000.0), (-1000.0, 1000.0), (-1000.0, 1000.0), (-1000.0, 1000.0), (-1000.0, 1000.0), (-1000.0, 1000.0), (-1000.0, 1000.0), (-1000.0, 1000.0), (-1000.0, 1000.0), (-1000.0, 1000.0), (-1000.0, 1000.0), (-1000.0, 1000.0), (-1000.0, 1000.0), (-1000.0, 1000.0), (-1000.0, 1000.0), (-1000.0, 1000.0), (-1000.0, 1000.0), (-1000.0, 1000.0), (-1000.0, 1000.0), (-1000.0, 1000.0), (-1000.0, 1000.0), (-1000.0, 1000.0), (-1000.0, 1000.0), (-1000.0, 1000.0), (-1000.0, 1000.0), (-1000.0, 1000.0), (-1000.0, 1000.0), (-1000.0, 1000.0), (-1000.0, 1000.0), (-1000.0, 1000.0), (-1000.0, 1000.0), (-1000.0, 1000.0), (-1000.0, 1000.0), (-1000.0, 1000.0), (-1000.0, 1000.0), (-1000.0, 1000.0), (-1000.0, 1000.0), (-1000.0, 1000.0), (-1000.0, 1000.0), (-1000.0, 1000.0), (-1000.0, 1000.0), (-1000.0, 1000.0), (-1000.0, 1000.0), (-1000.0, 1000.0), (-1000.0, 1000.0), (-1000.0, 1000.0), (-1000.0, 1000.0), (-1000.0, 1000.0), (-1000.0, 1000.0), (-1000.0, 1000.0), (-1000.0, 1000.0), (-1000.0, 1000.0), (-1000.0, 1000.0), (-1000.0, 1000.0), (-1000.0, 1000.0), (-1000.0, 1000.0), (-1000.0, 1000.0), (-1000.0, 1000.0), (-1000.0, 1000.0), (-1000.0, 1000.0), (-1000.0, 1000.0), (-1000.0, 1000.0), (-1000.0, 1000.0), (-1000.0, 1000.0), (-1000.0, 1000.0), (-1000.0, 1000.0), (-1000.0, 1000.0), (-1000.0, 1000.0), (-1000.0, 1000.0), (-1000.0, 1000.0), (-1000.0, 1000.0), (-1000.0, 1000.0), (-1000.0, 1000.0), (-1000.0, 1000.0), (-1000.0, 1000.0), (-1000.0, 1000.0), (-1000.0, 1000.0), (-1000.0, 1000.0), (-1000.0, 1000.0), (-1000.0, 1000.0), (-1000.0, 1000.0), (-1000.0, 1000.0), (-1000.0, 1000.0), (-1000.0, 1000.0), (-1000.0, 1000.0), (-1000.0, 1000.0), (-1000.0, 1000.0), (-1000.0, 1000.0), (-1000.0, 1000.0), (-1000.0, 1000.0), (-1000.0, 1000.0), (-1000.0, 1000.0), (-1000.0, 1000.0), (-1000.0, 1000.0), (-1000.0, 1000.0), (-1000.0, 1000.0), (-1000.0, 1000.0), (-1000.0, 1000.0), (-1000.0, 1000.0), (-1000.0, 1000.0), (-1000.0, 1000.0), (-1000.0, 1000.0), (-1000.0, 1000.0), (-1000.0, 1000.0), (-1000.0, 1000.0), (-1000.0, 1000.0), (-1000.0, 1000.0), (-1000.0, 1000.0), (-1000.0, 1000.0), (-1000.0, 1000.0), (-1000.0, 1000.0), (-1000.0, 1000.0), (-1000.0, 1000.0), (-1000.0, 1000.0), (-1000.0, 1000.0), (-1000.0, 1000.0), (-1000.0, 1000.0), (-1000.0, 1000.0), (-1000.0, 1000.0), (-1000.0, 1000.0), (-1000.0, 1000.0), (-1000.0, 1000.0), (-1000.0, 1000.0), (-1000.0, 1000.0), (-1000.0, 1000.0), (-1000.0, 1000.0), (-1000.0, 1000.0), (-1000.0, 1000.0), (-1000.0, 1000.0), (-1000.0, 1000.0), (-1000.0, 1000.0), (-1000.0, 1000.0), (-1000.0, 1000.0), (-1000.0, 1000.0), (-1000.0, 1000.0), (-1000.0, 1000.0), (-1000.0, 1000.0), (-1000.0, 1000.0), (-1000.0, 1000.0), (-1000.0, 1000.0), (-1000.0, 1000.0), (-1000.0, 1000.0), (-1000.0, 1000.0), (-1000.0, 1000.0), (-1000.0, 1000.0), (-1000.0, 1000.0), (-1000.0, 1000.0), (-1000.0, 1000.0), (-1000.0, 1000.0), (-1000.0, 1000.0), (-1000.0, 1000.0), (-1000.0, 1000.0), (-1000.0, 1000.0), (-1000.0, 1000.0), (-1000.0, 1000.0), (-1000.0, 1000.0), (-1000.0, 1000.0), (-1000.0, 1000.0), (-1000.0, 1000.0), (-1000.0, 1000.0), (-1000.0, 1000.0), (-1000.0, 1000.0), (-1000.0, 1000.0), (-1000.0, 1000.0), (-1000.0, 1000.0), (-1000.0, 1000.0), (-1000.0, 1000.0), (-1000.0, 1000.0), (-1000.0, 1000.0), (-1000.0, 1000.0), (-1000.0, 1000.0), (-1000.0, 1000.0), (-1000.0, 1000.0), (-1000.0, 1000.0), (-1000.0, 1000.0), (-1000.0, 1000.0), (-1000.0, 1000.0), (-1000.0, 1000.0), (-1000.0, 1000.0), (-1000.0, 1000.0), (-1000.0, 1000.0), (-1000.0, 1000.0), (-1000.0, 1000.0), (-1000.0, 1000.0), (-1000.0, 1000.0), (-1000.0, 1000.0), (-1000.0, 1000.0), (-1000.0, 1000.0), (-1000.0, 1000.0), (-1000.0, 1000.0), (-1000.0, 1000.0), (-1000.0, 1000.0), (-1000.0, 1000.0), (-1000.0, 1000.0), (-1000.0, 1000.0), (-1000.0, 1000.0), (-1000.0, 1000.0), (-1000.0, 1000.0), (-1000.0, 1000.0), (-1000.0, 1000.0), (-1000.0, 1000.0), (-1000.0, 1000.0), (-1000.0, 1000.0), (-1000.0, 1000.0), (-1000.0, 1000.0), (-1000.0, 1000.0), (-1000.0, 1000.0), (-1000.0, 1000.0), (-1000.0, 1000.0), (-1000.0, 1000.0), (-1000.0, 1000.0), (-1000.0, 1000.0), (-1000.0, 1000.0), (-1000.0, 1000.0), (-1000.0, 1000.0), (-1000.0, 1000.0), (-1000.0, 1000.0), (-1000.0, 1000.0), (-1000.0, 1000.0)]

  NIT    FC           OBJFUN            GNORM
    1     2     9.630990E-08     2.126492E-06
    2     3     9.456697E-08     1.522123E-06
    3     4     9.201073E-08     1.569701E-06
    4     5     8.775199E-08     1.542115E-06
    5     6     8.365696E-08     1.398995E-06
    6     7     8.027287E-08     1.611850E-06
    7     8     7.650830E-08     1.407138E-06
    8     9     7.133064E-08     1.420293E-06
    9    10     6.562104E-08     1.304723E-06
   10    11     5.145090E-08     1.464690E-06
   11    12     4.917432E-08     1.167509E-06
   12    13     4.924126E-08     1.103413E-06
   13    15     4.707011E-08     1.104169E-06
   14    16     4.560085E-08     1.110725E-06
   15    17     4.476231E-08     1.111748E-06
   16    18     4.300469E-08     1.089837E-06
   17    19     4.067868E-08     1.065982E-06
   18    20     3.885882E-08     1.093235E-06
   19    21     3.595481E-08     1.068671E-06
   20    22     3.373664E-08     1.050807E-06
   21    23     3.245357E-08     1.046470E-06
   22    24     3.148772E-08     1.047726E-06
   23    25     3.094828E-08     1.051104E-06
   24    26     3.041506E-08     1.056010E-06

============================================

        Job resource usage summary 

                 Memory (GB)    NCPUs
 Requested  :       110            32
 Used       :         2 (peak)  31.98 (ave)

============================================
