
-------------------------------------------------------------------------
|    ___ _   _ ___                                                      |
|   / __| | | |_  )   Release 7.1.0 "Blackbird"                         |
|   \__ \ |_| |/ /                                                      |
|   |___/\___//___|   Aerodynamic Shape Optimization Script             |
|                                                                       |
-------------------------------------------------------------------------
| SU2 Project Website: https://su2code.github.io                        |
|                                                                       |
| The SU2 Project is maintained by the SU2 Foundation                   |
| (http://su2foundation.org)                                            |
-------------------------------------------------------------------------
| Copyright 2012-2020, SU2 Contributors (cf. AUTHORS.md)                |
|                                                                       |
| SU2 is free software; you can redistribute it and/or                  |
| modify it under the terms of the GNU Lesser General Public            |
| License as published by the Free Software Foundation; either          |
| version 2.1 of the License, or (at your option) any later version.    |
|                                                                       |
| SU2 is distributed in the hope that it will be useful,                |
| but WITHOUT ANY WARRANTY; without even the implied warranty of        |
| MERCHANTABILITY or FITNESS FOR A PARTICULAR PURPOSE. See the GNU      |
| Lesser General Public License for more details.                       |
|                                                                       |
| You should have received a copy of the GNU Lesser General Public      |
| License along with SU2. If not, see <http://www.gnu.org/licenses/>.   |
-------------------------------------------------------------------------
Found: NACA2412_3D_combined_winglet0.su2
New Project: ./
Sequential Least SQuares Programming (SLSQP) parameters:
Number of design variables: 209 ( 209 ) 
Objective function scaling factor: [1.0]
Maximum number of iterations: 80
Requested accuracy: 1e-15
Initial guess for the independent variable(s): [0.0, 0.0, 0.0, 0.0, 0.0, 0.0, 0.0, 0.0, 0.0, 0.0, 0.0, 0.0, 0.0, 0.0, 0.0, 0.0, 0.0, 0.0, 0.0, 0.0, 0.0, 0.0, 0.0, 0.0, 0.0, 0.0, 0.0, 0.0, 0.0, 0.0, 0.0, 0.0, 0.0, 0.0, 0.0, 0.0, 0.0, 0.0, 0.0, 0.0, 0.0, 0.0, 0.0, 0.0, 0.0, 0.0, 0.0, 0.0, 0.0, 0.0, 0.0, 0.0, 0.0, 0.0, 0.0, 0.0, 0.0, 0.0, 0.0, 0.0, 0.0, 0.0, 0.0, 0.0, 0.0, 0.0, 0.0, 0.0, 0.0, 0.0, 0.0, 0.0, 0.0, 0.0, 0.0, 0.0, 0.0, 0.0, 0.0, 0.0, 0.0, 0.0, 0.0, 0.0, 0.0, 0.0, 0.0, 0.0, 0.0, 0.0, 0.0, 0.0, 0.0, 0.0, 0.0, 0.0, 0.0, 0.0, 0.0, 0.0, 0.0, 0.0, 0.0, 0.0, 0.0, 0.0, 0.0, 0.0, 0.0, 0.0, 0.0, 0.0, 0.0, 0.0, 0.0, 0.0, 0.0, 0.0, 0.0, 0.0, 0.0, 0.0, 0.0, 0.0, 0.0, 0.0, 0.0, 0.0, 0.0, 0.0, 0.0, 0.0, 0.0, 0.0, 0.0, 0.0, 0.0, 0.0, 0.0, 0.0, 0.0, 0.0, 0.0, 0.0, 0.0, 0.0, 0.0, 0.0, 0.0, 0.0, 0.0, 0.0, 0.0, 0.0, 0.0, 0.0, 0.0, 0.0, 0.0, 0.0, 0.0, 0.0, 0.0, 0.0, 0.0, 0.0, 0.0, 0.0, 0.0, 0.0, 0.0, 0.0, 0.0, 0.0, 0.0, 0.0, 0.0, 0.0, 0.0, 0.0, 0.0, 0.0, 0.0, 0.0, 0.0, 0.0, 0.0, 0.0, 0.0, 0.0, 0.0, 0.0, 0.0, 0.0, 0.0, 0.0, 0.0, 0.0, 0.0, 0.0, 0.0, 0.0, 0.0, 0.0, 0.0, 0.0, 0.0, 0.0, 0.0]
Lower and upper bound for each independent variable: [(-100000.0, 100000.0), (-100000.0, 100000.0), (-100000.0, 100000.0), (-100000.0, 100000.0), (-100000.0, 100000.0), (-100000.0, 100000.0), (-100000.0, 100000.0), (-100000.0, 100000.0), (-100000.0, 100000.0), (-100000.0, 100000.0), (-100000.0, 100000.0), (-100000.0, 100000.0), (-100000.0, 100000.0), (-100000.0, 100000.0), (-100000.0, 100000.0), (-100000.0, 100000.0), (-100000.0, 100000.0), (-100000.0, 100000.0), (-100000.0, 100000.0), (-100000.0, 100000.0), (-100000.0, 100000.0), (-100000.0, 100000.0), (-100000.0, 100000.0), (-100000.0, 100000.0), (-100000.0, 100000.0), (-100000.0, 100000.0), (-100000.0, 100000.0), (-100000.0, 100000.0), (-100000.0, 100000.0), (-100000.0, 100000.0), (-100000.0, 100000.0), (-100000.0, 100000.0), (-100000.0, 100000.0), (-100000.0, 100000.0), (-100000.0, 100000.0), (-100000.0, 100000.0), (-100000.0, 100000.0), (-100000.0, 100000.0), (-100000.0, 100000.0), (-100000.0, 100000.0), (-100000.0, 100000.0), (-100000.0, 100000.0), (-100000.0, 100000.0), (-100000.0, 100000.0), (-100000.0, 100000.0), (-100000.0, 100000.0), (-100000.0, 100000.0), (-100000.0, 100000.0), (-100000.0, 100000.0), (-100000.0, 100000.0), (-100000.0, 100000.0), (-100000.0, 100000.0), (-100000.0, 100000.0), (-100000.0, 100000.0), (-100000.0, 100000.0), (-100000.0, 100000.0), (-100000.0, 100000.0), (-100000.0, 100000.0), (-100000.0, 100000.0), (-100000.0, 100000.0), (-100000.0, 100000.0), (-100000.0, 100000.0), (-100000.0, 100000.0), (-100000.0, 100000.0), (-100000.0, 100000.0), (-100000.0, 100000.0), (-100000.0, 100000.0), (-100000.0, 100000.0), (-100000.0, 100000.0), (-100000.0, 100000.0), (-100000.0, 100000.0), (-100000.0, 100000.0), (-100000.0, 100000.0), (-100000.0, 100000.0), (-100000.0, 100000.0), (-100000.0, 100000.0), (-100000.0, 100000.0), (-100000.0, 100000.0), (-100000.0, 100000.0), (-100000.0, 100000.0), (-100000.0, 100000.0), (-100000.0, 100000.0), (-100000.0, 100000.0), (-100000.0, 100000.0), (-100000.0, 100000.0), (-100000.0, 100000.0), (-100000.0, 100000.0), (-100000.0, 100000.0), (-100000.0, 100000.0), (-100000.0, 100000.0), (-100000.0, 100000.0), (-100000.0, 100000.0), (-100000.0, 100000.0), (-100000.0, 100000.0), (-100000.0, 100000.0), (-100000.0, 100000.0), (-100000.0, 100000.0), (-100000.0, 100000.0), (-100000.0, 100000.0), (-100000.0, 100000.0), (-100000.0, 100000.0), (-100000.0, 100000.0), (-100000.0, 100000.0), (-100000.0, 100000.0), (-100000.0, 100000.0), (-100000.0, 100000.0), (-100000.0, 100000.0), (-100000.0, 100000.0), (-100000.0, 100000.0), (-100000.0, 100000.0), (-100000.0, 100000.0), (-100000.0, 100000.0), (-100000.0, 100000.0), (-100000.0, 100000.0), (-100000.0, 100000.0), (-100000.0, 100000.0), (-100000.0, 100000.0), (-100000.0, 100000.0), (-100000.0, 100000.0), (-100000.0, 100000.0), (-100000.0, 100000.0), (-100000.0, 100000.0), (-100000.0, 100000.0), (-100000.0, 100000.0), (-100000.0, 100000.0), (-100000.0, 100000.0), (-100000.0, 100000.0), (-100000.0, 100000.0), (-100000.0, 100000.0), (-100000.0, 100000.0), (-100000.0, 100000.0), (-100000.0, 100000.0), (-100000.0, 100000.0), (-100000.0, 100000.0), (-100000.0, 100000.0), (-100000.0, 100000.0), (-100000.0, 100000.0), (-100000.0, 100000.0), (-100000.0, 100000.0), (-100000.0, 100000.0), (-100000.0, 100000.0), (-100000.0, 100000.0), (-100000.0, 100000.0), (-100000.0, 100000.0), (-100000.0, 100000.0), (-100000.0, 100000.0), (-100000.0, 100000.0), (-100000.0, 100000.0), (-100000.0, 100000.0), (-100000.0, 100000.0), (-100000.0, 100000.0), (-100000.0, 100000.0), (-100000.0, 100000.0), (-100000.0, 100000.0), (-100000.0, 100000.0), (-100000.0, 100000.0), (-100000.0, 100000.0), (-100000.0, 100000.0), (-100000.0, 100000.0), (-100000.0, 100000.0), (-100000.0, 100000.0), (-100000.0, 100000.0), (-100000.0, 100000.0), (-100000.0, 100000.0), (-100000.0, 100000.0), (-100000.0, 100000.0), (-100000.0, 100000.0), (-100000.0, 100000.0), (-100000.0, 100000.0), (-100000.0, 100000.0), (-100000.0, 100000.0), (-100000.0, 100000.0), (-100000.0, 100000.0), (-100000.0, 100000.0), (-100000.0, 100000.0), (-100000.0, 100000.0), (-100000.0, 100000.0), (-100000.0, 100000.0), (-100000.0, 100000.0), (-100000.0, 100000.0), (-100000.0, 100000.0), (-100000.0, 100000.0), (-100000.0, 100000.0), (-100000.0, 100000.0), (-100000.0, 100000.0), (-100000.0, 100000.0), (-100000.0, 100000.0), (-100000.0, 100000.0), (-100000.0, 100000.0), (-100000.0, 100000.0), (-100000.0, 100000.0), (-100000.0, 100000.0), (-100000.0, 100000.0), (-100000.0, 100000.0), (-100000.0, 100000.0), (-100000.0, 100000.0), (-100000.0, 100000.0), (-100000.0, 100000.0), (-100000.0, 100000.0), (-100000.0, 100000.0), (-100000.0, 100000.0), (-100000.0, 100000.0), (-100000.0, 100000.0), (-100000.0, 100000.0), (-100000.0, 100000.0), (-100000.0, 100000.0), (-100000.0, 100000.0), (-100000.0, 100000.0), (-100000.0, 100000.0)]

  NIT    FC           OBJFUN            GNORM
    1     2     8.757814E-08     2.167784E-07
    2     3     8.757296E-08     8.266724E-08
    3     4     8.752269E-08     4.103553E-07
    4     5     8.736134E-08     6.704523E-08
    5     6     8.596865E-08     2.657534E-07
    6     7     8.565705E-08     7.059881E-08
    7     8     8.548304E-08     1.139502E-07
    8     9     1.179155E-07     6.505169E-07
    9    11     8.320383E-08     8.479295E-08
   10    12     8.341174E-08     2.394331E-07
Optimization terminated successfully    (Exit mode 0)
            Current function value: 8.320383163e-08
            Iterations: 10
            Function evaluations: 22
            Gradient evaluations: 10

============================================

        Job resource usage summary 

                 Memory (GB)    NCPUs
 Requested  :       110            32
 Used       :         2 (peak)  31.90 (ave)

============================================
