
-------------------------------------------------------------------------
|    ___ _   _ ___                                                      |
|   / __| | | |_  )   Release 7.1.0 "Blackbird"                         |
|   \__ \ |_| |/ /                                                      |
|   |___/\___//___|   Aerodynamic Shape Optimization Script             |
|                                                                       |
-------------------------------------------------------------------------
| SU2 Project Website: https://su2code.github.io                        |
|                                                                       |
| The SU2 Project is maintained by the SU2 Foundation                   |
| (http://su2foundation.org)                                            |
-------------------------------------------------------------------------
| Copyright 2012-2020, SU2 Contributors (cf. AUTHORS.md)                |
|                                                                       |
| SU2 is free software; you can redistribute it and/or                  |
| modify it under the terms of the GNU Lesser General Public            |
| License as published by the Free Software Foundation; either          |
| version 2.1 of the License, or (at your option) any later version.    |
|                                                                       |
| SU2 is distributed in the hope that it will be useful,                |
| but WITHOUT ANY WARRANTY; without even the implied warranty of        |
| MERCHANTABILITY or FITNESS FOR A PARTICULAR PURPOSE. See the GNU      |
| Lesser General Public License for more details.                       |
|                                                                       |
| You should have received a copy of the GNU Lesser General Public      |
| License along with SU2. If not, see <http://www.gnu.org/licenses/>.   |
-------------------------------------------------------------------------
Found: NACA2412_3D_combined.su2
New Project: ./
Removing old designs in 10s. Done!

Sequential Least SQuares Programming (SLSQP) parameters:
Number of design variables: 396 ( 396 ) 
Objective function scaling factor: [1.0]
Maximum number of iterations: 30
Requested accuracy: 1e-15
Initial guess for the independent variable(s): [0.0, 0.0, 0.0, 0.0, 0.0, 0.0, 0.0, 0.0, 0.0, 0.0, 0.0, 0.0, 0.0, 0.0, 0.0, 0.0, 0.0, 0.0, 0.0, 0.0, 0.0, 0.0, 0.0, 0.0, 0.0, 0.0, 0.0, 0.0, 0.0, 0.0, 0.0, 0.0, 0.0, 0.0, 0.0, 0.0, 0.0, 0.0, 0.0, 0.0, 0.0, 0.0, 0.0, 0.0, 0.0, 0.0, 0.0, 0.0, 0.0, 0.0, 0.0, 0.0, 0.0, 0.0, 0.0, 0.0, 0.0, 0.0, 0.0, 0.0, 0.0, 0.0, 0.0, 0.0, 0.0, 0.0, 0.0, 0.0, 0.0, 0.0, 0.0, 0.0, 0.0, 0.0, 0.0, 0.0, 0.0, 0.0, 0.0, 0.0, 0.0, 0.0, 0.0, 0.0, 0.0, 0.0, 0.0, 0.0, 0.0, 0.0, 0.0, 0.0, 0.0, 0.0, 0.0, 0.0, 0.0, 0.0, 0.0, 0.0, 0.0, 0.0, 0.0, 0.0, 0.0, 0.0, 0.0, 0.0, 0.0, 0.0, 0.0, 0.0, 0.0, 0.0, 0.0, 0.0, 0.0, 0.0, 0.0, 0.0, 0.0, 0.0, 0.0, 0.0, 0.0, 0.0, 0.0, 0.0, 0.0, 0.0, 0.0, 0.0, 0.0, 0.0, 0.0, 0.0, 0.0, 0.0, 0.0, 0.0, 0.0, 0.0, 0.0, 0.0, 0.0, 0.0, 0.0, 0.0, 0.0, 0.0, 0.0, 0.0, 0.0, 0.0, 0.0, 0.0, 0.0, 0.0, 0.0, 0.0, 0.0, 0.0, 0.0, 0.0, 0.0, 0.0, 0.0, 0.0, 0.0, 0.0, 0.0, 0.0, 0.0, 0.0, 0.0, 0.0, 0.0, 0.0, 0.0, 0.0, 0.0, 0.0, 0.0, 0.0, 0.0, 0.0, 0.0, 0.0, 0.0, 0.0, 0.0, 0.0, 0.0, 0.0, 0.0, 0.0, 0.0, 0.0, 0.0, 0.0, 0.0, 0.0, 0.0, 0.0, 0.0, 0.0, 0.0, 0.0, 0.0, 0.0, 0.0, 0.0, 0.0, 0.0, 0.0, 0.0, 0.0, 0.0, 0.0, 0.0, 0.0, 0.0, 0.0, 0.0, 0.0, 0.0, 0.0, 0.0, 0.0, 0.0, 0.0, 0.0, 0.0, 0.0, 0.0, 0.0, 0.0, 0.0, 0.0, 0.0, 0.0, 0.0, 0.0, 0.0, 0.0, 0.0, 0.0, 0.0, 0.0, 0.0, 0.0, 0.0, 0.0, 0.0, 0.0, 0.0, 0.0, 0.0, 0.0, 0.0, 0.0, 0.0, 0.0, 0.0, 0.0, 0.0, 0.0, 0.0, 0.0, 0.0, 0.0, 0.0, 0.0, 0.0, 0.0, 0.0, 0.0, 0.0, 0.0, 0.0, 0.0, 0.0, 0.0, 0.0, 0.0, 0.0, 0.0, 0.0, 0.0, 0.0, 0.0, 0.0, 0.0, 0.0, 0.0, 0.0, 0.0, 0.0, 0.0, 0.0, 0.0, 0.0, 0.0, 0.0, 0.0, 0.0, 0.0, 0.0, 0.0, 0.0, 0.0, 0.0, 0.0, 0.0, 0.0, 0.0, 0.0, 0.0, 0.0, 0.0, 0.0, 0.0, 0.0, 0.0, 0.0, 0.0, 0.0, 0.0, 0.0, 0.0, 0.0, 0.0, 0.0, 0.0, 0.0, 0.0, 0.0, 0.0, 0.0, 0.0, 0.0, 0.0, 0.0, 0.0, 0.0, 0.0, 0.0, 0.0, 0.0, 0.0, 0.0, 0.0, 0.0, 0.0, 0.0, 0.0, 0.0, 0.0, 0.0, 0.0, 0.0, 0.0, 0.0, 0.0, 0.0, 0.0, 0.0, 0.0, 0.0, 0.0, 0.0, 0.0, 0.0, 0.0, 0.0, 0.0, 0.0, 0.0, 0.0, 0.0, 0.0, 0.0, 0.0, 0.0, 0.0, 0.0, 0.0, 0.0, 0.0, 0.0, 0.0, 0.0, 0.0, 0.0, 0.0, 0.0]
Lower and upper bound for each independent variable: [(-1000.0, 1000.0), (-1000.0, 1000.0), (-1000.0, 1000.0), (-1000.0, 1000.0), (-1000.0, 1000.0), (-1000.0, 1000.0), (-1000.0, 1000.0), (-1000.0, 1000.0), (-1000.0, 1000.0), (-1000.0, 1000.0), (-1000.0, 1000.0), (-1000.0, 1000.0), (-1000.0, 1000.0), (-1000.0, 1000.0), (-1000.0, 1000.0), (-1000.0, 1000.0), (-1000.0, 1000.0), (-1000.0, 1000.0), (-1000.0, 1000.0), (-1000.0, 1000.0), (-1000.0, 1000.0), (-1000.0, 1000.0), (-1000.0, 1000.0), (-1000.0, 1000.0), (-1000.0, 1000.0), (-1000.0, 1000.0), (-1000.0, 1000.0), (-1000.0, 1000.0), (-1000.0, 1000.0), (-1000.0, 1000.0), (-1000.0, 1000.0), (-1000.0, 1000.0), (-1000.0, 1000.0), (-1000.0, 1000.0), (-1000.0, 1000.0), (-1000.0, 1000.0), (-1000.0, 1000.0), (-1000.0, 1000.0), (-1000.0, 1000.0), (-1000.0, 1000.0), (-1000.0, 1000.0), (-1000.0, 1000.0), (-1000.0, 1000.0), (-1000.0, 1000.0), (-1000.0, 1000.0), (-1000.0, 1000.0), (-1000.0, 1000.0), (-1000.0, 1000.0), (-1000.0, 1000.0), (-1000.0, 1000.0), (-1000.0, 1000.0), (-1000.0, 1000.0), (-1000.0, 1000.0), (-1000.0, 1000.0), (-1000.0, 1000.0), (-1000.0, 1000.0), (-1000.0, 1000.0), (-1000.0, 1000.0), (-1000.0, 1000.0), (-1000.0, 1000.0), (-1000.0, 1000.0), (-1000.0, 1000.0), (-1000.0, 1000.0), (-1000.0, 1000.0), (-1000.0, 1000.0), (-1000.0, 1000.0), (-1000.0, 1000.0), (-1000.0, 1000.0), (-1000.0, 1000.0), (-1000.0, 1000.0), (-1000.0, 1000.0), (-1000.0, 1000.0), (-1000.0, 1000.0), (-1000.0, 1000.0), (-1000.0, 1000.0), (-1000.0, 1000.0), (-1000.0, 1000.0), (-1000.0, 1000.0), (-1000.0, 1000.0), (-1000.0, 1000.0), (-1000.0, 1000.0), (-1000.0, 1000.0), (-1000.0, 1000.0), (-1000.0, 1000.0), (-1000.0, 1000.0), (-1000.0, 1000.0), (-1000.0, 1000.0), (-1000.0, 1000.0), (-1000.0, 1000.0), (-1000.0, 1000.0), (-1000.0, 1000.0), (-1000.0, 1000.0), (-1000.0, 1000.0), (-1000.0, 1000.0), (-1000.0, 1000.0), (-1000.0, 1000.0), (-1000.0, 1000.0), (-1000.0, 1000.0), (-1000.0, 1000.0), (-1000.0, 1000.0), (-1000.0, 1000.0), (-1000.0, 1000.0), (-1000.0, 1000.0), (-1000.0, 1000.0), (-1000.0, 1000.0), (-1000.0, 1000.0), (-1000.0, 1000.0), (-1000.0, 1000.0), (-1000.0, 1000.0), (-1000.0, 1000.0), (-1000.0, 1000.0), (-1000.0, 1000.0), (-1000.0, 1000.0), (-1000.0, 1000.0), (-1000.0, 1000.0), (-1000.0, 1000.0), (-1000.0, 1000.0), (-1000.0, 1000.0), (-1000.0, 1000.0), (-1000.0, 1000.0), (-1000.0, 1000.0), (-1000.0, 1000.0), (-1000.0, 1000.0), (-1000.0, 1000.0), (-1000.0, 1000.0), (-1000.0, 1000.0), (-1000.0, 1000.0), (-1000.0, 1000.0), (-1000.0, 1000.0), (-1000.0, 1000.0), (-1000.0, 1000.0), (-1000.0, 1000.0), (-1000.0, 1000.0), (-1000.0, 1000.0), (-1000.0, 1000.0), (-1000.0, 1000.0), (-1000.0, 1000.0), (-1000.0, 1000.0), (-1000.0, 1000.0), (-1000.0, 1000.0), (-1000.0, 1000.0), (-1000.0, 1000.0), (-1000.0, 1000.0), (-1000.0, 1000.0), (-1000.0, 1000.0), (-1000.0, 1000.0), (-1000.0, 1000.0), (-1000.0, 1000.0), (-1000.0, 1000.0), (-1000.0, 1000.0), (-1000.0, 1000.0), (-1000.0, 1000.0), (-1000.0, 1000.0), (-1000.0, 1000.0), (-1000.0, 1000.0), (-1000.0, 1000.0), (-1000.0, 1000.0), (-1000.0, 1000.0), (-1000.0, 1000.0), (-1000.0, 1000.0), (-1000.0, 1000.0), (-1000.0, 1000.0), (-1000.0, 1000.0), (-1000.0, 1000.0), (-1000.0, 1000.0), (-1000.0, 1000.0), (-1000.0, 1000.0), (-1000.0, 1000.0), (-1000.0, 1000.0), (-1000.0, 1000.0), (-1000.0, 1000.0), (-1000.0, 1000.0), (-1000.0, 1000.0), (-1000.0, 1000.0), (-1000.0, 1000.0), (-1000.0, 1000.0), (-1000.0, 1000.0), (-1000.0, 1000.0), (-1000.0, 1000.0), (-1000.0, 1000.0), (-1000.0, 1000.0), (-1000.0, 1000.0), (-1000.0, 1000.0), (-1000.0, 1000.0), (-1000.0, 1000.0), (-1000.0, 1000.0), (-1000.0, 1000.0), (-1000.0, 1000.0), (-1000.0, 1000.0), (-1000.0, 1000.0), (-1000.0, 1000.0), (-1000.0, 1000.0), (-1000.0, 1000.0), (-1000.0, 1000.0), (-1000.0, 1000.0), (-1000.0, 1000.0), (-1000.0, 1000.0), (-1000.0, 1000.0), (-1000.0, 1000.0), (-1000.0, 1000.0), (-1000.0, 1000.0), (-1000.0, 1000.0), (-1000.0, 1000.0), (-1000.0, 1000.0), (-1000.0, 1000.0), (-1000.0, 1000.0), (-1000.0, 1000.0), (-1000.0, 1000.0), (-1000.0, 1000.0), (-1000.0, 1000.0), (-1000.0, 1000.0), (-1000.0, 1000.0), (-1000.0, 1000.0), (-1000.0, 1000.0), (-1000.0, 1000.0), (-1000.0, 1000.0), (-1000.0, 1000.0), (-1000.0, 1000.0), (-1000.0, 1000.0), (-1000.0, 1000.0), (-1000.0, 1000.0), (-1000.0, 1000.0), (-1000.0, 1000.0), (-1000.0, 1000.0), (-1000.0, 1000.0), (-1000.0, 1000.0), (-1000.0, 1000.0), (-1000.0, 1000.0), (-1000.0, 1000.0), (-1000.0, 1000.0), (-1000.0, 1000.0), (-1000.0, 1000.0), (-1000.0, 1000.0), (-1000.0, 1000.0), (-1000.0, 1000.0), (-1000.0, 1000.0), (-1000.0, 1000.0), (-1000.0, 1000.0), (-1000.0, 1000.0), (-1000.0, 1000.0), (-1000.0, 1000.0), (-1000.0, 1000.0), (-1000.0, 1000.0), (-1000.0, 1000.0), (-1000.0, 1000.0), (-1000.0, 1000.0), (-1000.0, 1000.0), (-1000.0, 1000.0), (-1000.0, 1000.0), (-1000.0, 1000.0), (-1000.0, 1000.0), (-1000.0, 1000.0), (-1000.0, 1000.0), (-1000.0, 1000.0), (-1000.0, 1000.0), (-1000.0, 1000.0), (-1000.0, 1000.0), (-1000.0, 1000.0), (-1000.0, 1000.0), (-1000.0, 1000.0), (-1000.0, 1000.0), (-1000.0, 1000.0), (-1000.0, 1000.0), (-1000.0, 1000.0), (-1000.0, 1000.0), (-1000.0, 1000.0), (-1000.0, 1000.0), (-1000.0, 1000.0), (-1000.0, 1000.0), (-1000.0, 1000.0), (-1000.0, 1000.0), (-1000.0, 1000.0), (-1000.0, 1000.0), (-1000.0, 1000.0), (-1000.0, 1000.0), (-1000.0, 1000.0), (-1000.0, 1000.0), (-1000.0, 1000.0), (-1000.0, 1000.0), (-1000.0, 1000.0), (-1000.0, 1000.0), (-1000.0, 1000.0), (-1000.0, 1000.0), (-1000.0, 1000.0), (-1000.0, 1000.0), (-1000.0, 1000.0), (-1000.0, 1000.0), (-1000.0, 1000.0), (-1000.0, 1000.0), (-1000.0, 1000.0), (-1000.0, 1000.0), (-1000.0, 1000.0), (-1000.0, 1000.0), (-1000.0, 1000.0), (-1000.0, 1000.0), (-1000.0, 1000.0), (-1000.0, 1000.0), (-1000.0, 1000.0), (-1000.0, 1000.0), (-1000.0, 1000.0), (-1000.0, 1000.0), (-1000.0, 1000.0), (-1000.0, 1000.0), (-1000.0, 1000.0), (-1000.0, 1000.0), (-1000.0, 1000.0), (-1000.0, 1000.0), (-1000.0, 1000.0), (-1000.0, 1000.0), (-1000.0, 1000.0), (-1000.0, 1000.0), (-1000.0, 1000.0), (-1000.0, 1000.0), (-1000.0, 1000.0), (-1000.0, 1000.0), (-1000.0, 1000.0), (-1000.0, 1000.0), (-1000.0, 1000.0), (-1000.0, 1000.0), (-1000.0, 1000.0), (-1000.0, 1000.0), (-1000.0, 1000.0), (-1000.0, 1000.0), (-1000.0, 1000.0), (-1000.0, 1000.0), (-1000.0, 1000.0), (-1000.0, 1000.0), (-1000.0, 1000.0), (-1000.0, 1000.0), (-1000.0, 1000.0), (-1000.0, 1000.0), (-1000.0, 1000.0), (-1000.0, 1000.0), (-1000.0, 1000.0), (-1000.0, 1000.0), (-1000.0, 1000.0), (-1000.0, 1000.0), (-1000.0, 1000.0), (-1000.0, 1000.0), (-1000.0, 1000.0), (-1000.0, 1000.0), (-1000.0, 1000.0), (-1000.0, 1000.0), (-1000.0, 1000.0), (-1000.0, 1000.0), (-1000.0, 1000.0), (-1000.0, 1000.0), (-1000.0, 1000.0), (-1000.0, 1000.0), (-1000.0, 1000.0), (-1000.0, 1000.0), (-1000.0, 1000.0), (-1000.0, 1000.0), (-1000.0, 1000.0), (-1000.0, 1000.0), (-1000.0, 1000.0), (-1000.0, 1000.0), (-1000.0, 1000.0), (-1000.0, 1000.0), (-1000.0, 1000.0), (-1000.0, 1000.0), (-1000.0, 1000.0), (-1000.0, 1000.0), (-1000.0, 1000.0), (-1000.0, 1000.0), (-1000.0, 1000.0), (-1000.0, 1000.0), (-1000.0, 1000.0), (-1000.0, 1000.0), (-1000.0, 1000.0), (-1000.0, 1000.0), (-1000.0, 1000.0), (-1000.0, 1000.0), (-1000.0, 1000.0), (-1000.0, 1000.0), (-1000.0, 1000.0), (-1000.0, 1000.0), (-1000.0, 1000.0), (-1000.0, 1000.0), (-1000.0, 1000.0), (-1000.0, 1000.0), (-1000.0, 1000.0), (-1000.0, 1000.0), (-1000.0, 1000.0), (-1000.0, 1000.0), (-1000.0, 1000.0), (-1000.0, 1000.0), (-1000.0, 1000.0), (-1000.0, 1000.0), (-1000.0, 1000.0), (-1000.0, 1000.0), (-1000.0, 1000.0), (-1000.0, 1000.0), (-1000.0, 1000.0), (-1000.0, 1000.0), (-1000.0, 1000.0)]

  NIT    FC           OBJFUN            GNORM
    1     2     9.768071E-08     1.653051E-06
    2     3     9.574249E-08     1.564876E-06
    3     4     9.046022E-08     1.635449E-06
    4     5     8.488246E-08     1.710987E-06
    5     6     8.197568E-08     1.448132E-06
    6     7     7.836222E-08     1.487593E-06
    7     8     6.871167E-08     1.543341E-06
    8     9     6.534304E-08     1.271329E-06
    9    10     4.668531E-08     1.204573E-06
   10    11     4.581033E-08     1.075173E-06
   11    12     4.532255E-08     1.033770E-06
   12    13     4.480757E-08     1.031080E-06
   13    14     4.421627E-08     1.039069E-06
   14    15     4.371147E-08     1.021888E-06
   15    16     4.305121E-08     1.104367E-06
   16    17     3.631763E-08     1.070847E-06
   17    18     3.409715E-08     1.025270E-06
   18    19     3.186024E-08     9.843213E-07
   19    20     3.086811E-08     9.459645E-07
   20    21     3.094921E-08     9.977690E-07
   21    23     3.610572E-08     9.930836E-07
   22    25     3.152634E-08     9.751825E-07
   23    27     3.071829E-08     9.656142E-07
   24    29     3.069437E-08     9.611407E-07
   25    40     2.974027E-08     9.605172E-07
   26    41     2.873474E-08     9.723615E-07
   27    42     2.774701E-08     9.489431E-07
   28    43     2.650781E-08     9.856081E-07
   29    44     2.652234E-08     9.441096E-07
   30    45     2.649238E-08     9.165142E-07
Iteration limit reached    (Exit mode 9)
            Current function value: 2.6492377050000002e-08
            Iterations: 30
            Function evaluations: 45
            Gradient evaluations: 30

============================================

        Job resource usage summary 

                 Memory (GB)    NCPUs
 Requested  :       110            32
 Used       :         2 (peak)  31.99 (ave)

============================================
