
-------------------------------------------------------------------------
|    ___ _   _ ___                                                      |
|   / __| | | |_  )   Release 7.1.0 "Blackbird"                         |
|   \__ \ |_| |/ /                                                      |
|   |___/\___//___|   Aerodynamic Shape Optimization Script             |
|                                                                       |
-------------------------------------------------------------------------
| SU2 Project Website: https://su2code.github.io                        |
|                                                                       |
| The SU2 Project is maintained by the SU2 Foundation                   |
| (http://su2foundation.org)                                            |
-------------------------------------------------------------------------
| Copyright 2012-2020, SU2 Contributors (cf. AUTHORS.md)                |
|                                                                       |
| SU2 is free software; you can redistribute it and/or                  |
| modify it under the terms of the GNU Lesser General Public            |
| License as published by the Free Software Foundation; either          |
| version 2.1 of the License, or (at your option) any later version.    |
|                                                                       |
| SU2 is distributed in the hope that it will be useful,                |
| but WITHOUT ANY WARRANTY; without even the implied warranty of        |
| MERCHANTABILITY or FITNESS FOR A PARTICULAR PURPOSE. See the GNU      |
| Lesser General Public License for more details.                       |
|                                                                       |
| You should have received a copy of the GNU Lesser General Public      |
| License along with SU2. If not, see <http://www.gnu.org/licenses/>.   |
-------------------------------------------------------------------------
Found: NACA2412_3D_combined.su2
New Project: ./
Sequential Least SQuares Programming (SLSQP) parameters:
Number of design variables: 198 ( 198 ) 
Objective function scaling factor: [1.0]
Maximum number of iterations: 30
Requested accuracy: 1e-15
Initial guess for the independent variable(s): [0.0, 0.0, 0.0, 0.0, 0.0, 0.0, 0.0, 0.0, 0.0, 0.0, 0.0, 0.0, 0.0, 0.0, 0.0, 0.0, 0.0, 0.0, 0.0, 0.0, 0.0, 0.0, 0.0, 0.0, 0.0, 0.0, 0.0, 0.0, 0.0, 0.0, 0.0, 0.0, 0.0, 0.0, 0.0, 0.0, 0.0, 0.0, 0.0, 0.0, 0.0, 0.0, 0.0, 0.0, 0.0, 0.0, 0.0, 0.0, 0.0, 0.0, 0.0, 0.0, 0.0, 0.0, 0.0, 0.0, 0.0, 0.0, 0.0, 0.0, 0.0, 0.0, 0.0, 0.0, 0.0, 0.0, 0.0, 0.0, 0.0, 0.0, 0.0, 0.0, 0.0, 0.0, 0.0, 0.0, 0.0, 0.0, 0.0, 0.0, 0.0, 0.0, 0.0, 0.0, 0.0, 0.0, 0.0, 0.0, 0.0, 0.0, 0.0, 0.0, 0.0, 0.0, 0.0, 0.0, 0.0, 0.0, 0.0, 0.0, 0.0, 0.0, 0.0, 0.0, 0.0, 0.0, 0.0, 0.0, 0.0, 0.0, 0.0, 0.0, 0.0, 0.0, 0.0, 0.0, 0.0, 0.0, 0.0, 0.0, 0.0, 0.0, 0.0, 0.0, 0.0, 0.0, 0.0, 0.0, 0.0, 0.0, 0.0, 0.0, 0.0, 0.0, 0.0, 0.0, 0.0, 0.0, 0.0, 0.0, 0.0, 0.0, 0.0, 0.0, 0.0, 0.0, 0.0, 0.0, 0.0, 0.0, 0.0, 0.0, 0.0, 0.0, 0.0, 0.0, 0.0, 0.0, 0.0, 0.0, 0.0, 0.0, 0.0, 0.0, 0.0, 0.0, 0.0, 0.0, 0.0, 0.0, 0.0, 0.0, 0.0, 0.0, 0.0, 0.0, 0.0, 0.0, 0.0, 0.0, 0.0, 0.0, 0.0, 0.0, 0.0, 0.0, 0.0, 0.0, 0.0, 0.0, 0.0, 0.0, 0.0, 0.0, 0.0, 0.0, 0.0, 0.0]
Lower and upper bound for each independent variable: [(-10000.0, 10000.0), (-10000.0, 10000.0), (-10000.0, 10000.0), (-10000.0, 10000.0), (-10000.0, 10000.0), (-10000.0, 10000.0), (-10000.0, 10000.0), (-10000.0, 10000.0), (-10000.0, 10000.0), (-10000.0, 10000.0), (-10000.0, 10000.0), (-10000.0, 10000.0), (-10000.0, 10000.0), (-10000.0, 10000.0), (-10000.0, 10000.0), (-10000.0, 10000.0), (-10000.0, 10000.0), (-10000.0, 10000.0), (-10000.0, 10000.0), (-10000.0, 10000.0), (-10000.0, 10000.0), (-10000.0, 10000.0), (-10000.0, 10000.0), (-10000.0, 10000.0), (-10000.0, 10000.0), (-10000.0, 10000.0), (-10000.0, 10000.0), (-10000.0, 10000.0), (-10000.0, 10000.0), (-10000.0, 10000.0), (-10000.0, 10000.0), (-10000.0, 10000.0), (-10000.0, 10000.0), (-10000.0, 10000.0), (-10000.0, 10000.0), (-10000.0, 10000.0), (-10000.0, 10000.0), (-10000.0, 10000.0), (-10000.0, 10000.0), (-10000.0, 10000.0), (-10000.0, 10000.0), (-10000.0, 10000.0), (-10000.0, 10000.0), (-10000.0, 10000.0), (-10000.0, 10000.0), (-10000.0, 10000.0), (-10000.0, 10000.0), (-10000.0, 10000.0), (-10000.0, 10000.0), (-10000.0, 10000.0), (-10000.0, 10000.0), (-10000.0, 10000.0), (-10000.0, 10000.0), (-10000.0, 10000.0), (-10000.0, 10000.0), (-10000.0, 10000.0), (-10000.0, 10000.0), (-10000.0, 10000.0), (-10000.0, 10000.0), (-10000.0, 10000.0), (-10000.0, 10000.0), (-10000.0, 10000.0), (-10000.0, 10000.0), (-10000.0, 10000.0), (-10000.0, 10000.0), (-10000.0, 10000.0), (-10000.0, 10000.0), (-10000.0, 10000.0), (-10000.0, 10000.0), (-10000.0, 10000.0), (-10000.0, 10000.0), (-10000.0, 10000.0), (-10000.0, 10000.0), (-10000.0, 10000.0), (-10000.0, 10000.0), (-10000.0, 10000.0), (-10000.0, 10000.0), (-10000.0, 10000.0), (-10000.0, 10000.0), (-10000.0, 10000.0), (-10000.0, 10000.0), (-10000.0, 10000.0), (-10000.0, 10000.0), (-10000.0, 10000.0), (-10000.0, 10000.0), (-10000.0, 10000.0), (-10000.0, 10000.0), (-10000.0, 10000.0), (-10000.0, 10000.0), (-10000.0, 10000.0), (-10000.0, 10000.0), (-10000.0, 10000.0), (-10000.0, 10000.0), (-10000.0, 10000.0), (-10000.0, 10000.0), (-10000.0, 10000.0), (-10000.0, 10000.0), (-10000.0, 10000.0), (-10000.0, 10000.0), (-10000.0, 10000.0), (-10000.0, 10000.0), (-10000.0, 10000.0), (-10000.0, 10000.0), (-10000.0, 10000.0), (-10000.0, 10000.0), (-10000.0, 10000.0), (-10000.0, 10000.0), (-10000.0, 10000.0), (-10000.0, 10000.0), (-10000.0, 10000.0), (-10000.0, 10000.0), (-10000.0, 10000.0), (-10000.0, 10000.0), (-10000.0, 10000.0), (-10000.0, 10000.0), (-10000.0, 10000.0), (-10000.0, 10000.0), (-10000.0, 10000.0), (-10000.0, 10000.0), (-10000.0, 10000.0), (-10000.0, 10000.0), (-10000.0, 10000.0), (-10000.0, 10000.0), (-10000.0, 10000.0), (-10000.0, 10000.0), (-10000.0, 10000.0), (-10000.0, 10000.0), (-10000.0, 10000.0), (-10000.0, 10000.0), (-10000.0, 10000.0), (-10000.0, 10000.0), (-10000.0, 10000.0), (-10000.0, 10000.0), (-10000.0, 10000.0), (-10000.0, 10000.0), (-10000.0, 10000.0), (-10000.0, 10000.0), (-10000.0, 10000.0), (-10000.0, 10000.0), (-10000.0, 10000.0), (-10000.0, 10000.0), (-10000.0, 10000.0), (-10000.0, 10000.0), (-10000.0, 10000.0), (-10000.0, 10000.0), (-10000.0, 10000.0), (-10000.0, 10000.0), (-10000.0, 10000.0), (-10000.0, 10000.0), (-10000.0, 10000.0), (-10000.0, 10000.0), (-10000.0, 10000.0), (-10000.0, 10000.0), (-10000.0, 10000.0), (-10000.0, 10000.0), (-10000.0, 10000.0), (-10000.0, 10000.0), (-10000.0, 10000.0), (-10000.0, 10000.0), (-10000.0, 10000.0), (-10000.0, 10000.0), (-10000.0, 10000.0), (-10000.0, 10000.0), (-10000.0, 10000.0), (-10000.0, 10000.0), (-10000.0, 10000.0), (-10000.0, 10000.0), (-10000.0, 10000.0), (-10000.0, 10000.0), (-10000.0, 10000.0), (-10000.0, 10000.0), (-10000.0, 10000.0), (-10000.0, 10000.0), (-10000.0, 10000.0), (-10000.0, 10000.0), (-10000.0, 10000.0), (-10000.0, 10000.0), (-10000.0, 10000.0), (-10000.0, 10000.0), (-10000.0, 10000.0), (-10000.0, 10000.0), (-10000.0, 10000.0), (-10000.0, 10000.0), (-10000.0, 10000.0), (-10000.0, 10000.0), (-10000.0, 10000.0), (-10000.0, 10000.0), (-10000.0, 10000.0), (-10000.0, 10000.0), (-10000.0, 10000.0), (-10000.0, 10000.0), (-10000.0, 10000.0), (-10000.0, 10000.0), (-10000.0, 10000.0), (-10000.0, 10000.0), (-10000.0, 10000.0), (-10000.0, 10000.0), (-10000.0, 10000.0)]

  NIT    FC           OBJFUN            GNORM
    1     2     1.222401E-07     1.713709E-06
    2     3     1.210885E-07     2.325733E-06
    3     4     1.163414E-07     2.283052E-06
    4     5     1.153854E-07     2.080702E-06
    5     6     1.672023E-07     1.229079E-06
Optimization terminated successfully    (Exit mode 0)
            Current function value: 1.1538540900000001e-07
            Iterations: 5
            Function evaluations: 16
            Gradient evaluations: 5

============================================

        Job resource usage summary 

                 Memory (GB)    NCPUs
 Requested  :       110            32
 Used       :         3 (peak)  31.92 (ave)

============================================
