# mpiexec: MPI is /apps/mpi/intel/2019.6.166
# mpiexec: No RDMA network found -- using sockets+shared memory
# mpiexec: bootstrapping with /apps/mpi/intel/2019.6.166/bin/__pbs_tmrsh
# mpiexec: full path to program is /rds/general/user/ia2017/home/SU2full/bin/SU2_CFD
# mpiexec: program arguments are: config_CFD.cfg
# mpiexec: 32 ranks allocated via PBS select
# mpiexec: 1 OpenMP threads / rank allocated by PBS select
# mpiexec: Job has shared use of the allocated nodes. Disabling process-pinning
# mpiexec: machinefile configured as:
cx3-4-20.cx3.hpc.ic.ac.uk:32
#
# mpiexec: Checking all nodes are ONLINE:
# mpiexec: All nodes appear ONLINE
# mpiexec: launch started at Fri  5 Mar 02:54:52 GMT 2021
# mpiexec: launching program...
# /rds/general/user/ia2017/home/SU2full/bin/SU2_CFD config_CFD.cfg
(cx3-4-20.cx3.hpc.ic.ac.uk:0,1,2,3,4,5,6,7,8,9,10,11,12,13,14,15,16,17,18,19,20,21,22,23,24,25,26,27,28,29,30,31)


-------------------------------------------------------------------------
|    ___ _   _ ___                                                      |
|   / __| | | |_  )   Release 7.1.0 "Blackbird"                         |
|   \__ \ |_| |/ /                                                      |
|   |___/\___//___|   Suite (Computational Fluid Dynamics Code)         |
|                                                                       |
-------------------------------------------------------------------------
| SU2 Project Website: https://su2code.github.io                        |
|                                                                       |
| The SU2 Project is maintained by the SU2 Foundation                   |
| (http://su2foundation.org)                                            |
-------------------------------------------------------------------------
| Copyright 2012-2020, SU2 Contributors                                 |
|                                                                       |
| SU2 is free software; you can redistribute it and/or                  |
| modify it under the terms of the GNU Lesser General Public            |
| License as published by the Free Software Foundation; either          |
| version 2.1 of the License, or (at your option) any later version.    |
|                                                                       |
| SU2 is distributed in the hope that it will be useful,                |
| but WITHOUT ANY WARRANTY; without even the implied warranty of        |
| MERCHANTABILITY or FITNESS FOR A PARTICULAR PURPOSE. See the GNU      |
| Lesser General Public License for more details.                       |
|                                                                       |
| You should have received a copy of the GNU Lesser General Public      |
| License along with SU2. If not, see <http://www.gnu.org/licenses/>.   |
-------------------------------------------------------------------------

Parsing config file for zone 0

----------------- Physical Case Definition ( Zone 0 ) -------------------
Compressible Euler equations.
Mach number: 0.5.
Angle of attack (AoA): 2 deg, and angle of sideslip (AoS): 0 deg.
No restart solution, use the values at infinity (freestream).
Dimensional simulation.
The reference area is 2 m^2.
The semi-span will be computed using the max y(3D) value.
The reference length is 1 m.
Reference origin for moment evaluation is (0.25, 0, 0).
Surface(s) where the force coefficients are evaluated: flowbound.

Surface(s) where the objective function is evaluated: flowbound.
Surface(s) plotted in the output file: flowbound.
Surface(s) acting as an interface among zones: flowbound, feabound.
Surface(s) affected by the design variables: flowbound, feabound.
Input mesh file name: NACA2412_3D_unmatched2.su2

--------------- Space Numerical Integration ( Zone 0 ) ------------------
Jameson-Schmidt-Turkel scheme (2nd order in space) for the flow inviscid terms.
JST viscous coefficients (2nd & 4th): 0.5, 0.02.
The method includes a grid stretching correction (p = 0.3).
Gradient for upwind reconstruction: Green-Gauss.
Gradient for viscous and source terms: Green-Gauss.

--------------- Time Numerical Integration  ( Zone 0 ) ------------------
Local time stepping (steady state simulation).
Euler implicit method for the flow equations.
BCGSTAB is used for solving the linear system.
Using a ILU(0) preconditioning.
Convergence criteria of the linear solver: 1e-06.
Max number of linear iterations: 300.
No CFL adaptation.
Courant-Friedrichs-Lewy number:       50

------------------ Convergence Criteria  ( Zone 0 ) ---------------------
Maximum number of solver subiterations: 600.
Maximum number of solver outer iterations: 50.
Begin convergence monitoring at iteration 20.
Residual minimum value: 1e-12.
Cauchy series min. value: 1e-10.
Number of Cauchy elements: 100.
Begin windowed time average at iteration 0.

-------------------- Output Information ( Zone 0 ) ----------------------
Writing solution files every 250 iterations.
Writing the convergence history file every 1 inner iterations.
Writing the convergence history file every 1 outer iterations.
Writing the screen convergence history every 1 inner iterations.
Writing the screen convergence history every 1 outer iterations.
The tabular file format is CSV (.csv).
Convergence history file name: history.
Forces breakdown file name: forces_breakdown.dat.
Surface file name: surface_flow.
Volume file name: fsisteadyvol.
Restart file name: fsisteady_res.dat.

------------- Config File Boundary Information ( Zone 0 ) ---------------
+-----------------------------------------------------------------------+
|                        Marker Type|                        Marker Name|
+-----------------------------------------------------------------------+
|                         Euler wall|                          flowbound|
+-----------------------------------------------------------------------+
|                          Far-field|                           farfield|
+-----------------------------------------------------------------------+
|                     Symmetry plane|                           symmetry|
+-----------------------------------------------------------------------+
|           Deformable mesh boundary|                          flowbound|
+-----------------------------------------------------------------------+
|               Fluid loads boundary|                           feabound|
+-----------------------------------------------------------------------+
|                   Clamped boundary|                            clamped|
+-----------------------------------------------------------------------+

Parsing config file for zone 1

----------------- Physical Case Definition ( Zone 1 ) -------------------
Geometrically non-linear elasticity solver.
Compressible Neo-Hookean material model.
No restart solution, initialize from undeformed configuration.
Surface(s) acting as an interface among zones: flowbound, feabound.
Surface(s) affected by the design variables: flowbound, feabound.
Input mesh file name: NACA2412_3D_unmatched2.su2

--------------- Space Numerical Integration ( Zone 1 ) ------------------
Spatial discretization using the Finite Element Method.

--------------- Time Numerical Integration  ( Zone 1 ) ------------------
Static structural analysis.
A Conjugate Gradient method is used for solving the linear system.
Convergence criteria of the linear solver: 1e-05.
Max number of iterations: 1000.

------------------ Convergence Criteria  ( Zone 1 ) ---------------------
Maximum number of solver subiterations: 50.
Maximum number of solver outer iterations: 50.
Begin convergence monitoring at iteration 0.
Residual minimum value: 1e-4.
Cauchy series min. value: 1e-10.
Number of Cauchy elements: 100.
Begin windowed time average at iteration 0.

-------------------- Output Information ( Zone 1 ) ----------------------
Writing solution files every 250 iterations.
Writing the convergence history file every 1 inner iterations.
Writing the convergence history file every 1 outer iterations.
Writing the screen convergence history every 1 inner iterations.
Writing the screen convergence history every 1 outer iterations.
The tabular file format is CSV (.csv).
Convergence history file name: history.
Forces breakdown file name: forces_breakdown.dat.
Surface file name: surface_flow.
Volume file name: fsisteadyvol.
Restart file name: fsisteady_res.dat.

------------- Config File Boundary Information ( Zone 1 ) ---------------
+-----------------------------------------------------------------------+
|                        Marker Type|                        Marker Name|
+-----------------------------------------------------------------------+
|                         Euler wall|                          flowbound|
|                                   |                           feabound|
+-----------------------------------------------------------------------+
|                          Far-field|                           farfield|
+-----------------------------------------------------------------------+
|                     Symmetry plane|                           symmetry|
+-----------------------------------------------------------------------+
|               Fluid loads boundary|                           feabound|
+-----------------------------------------------------------------------+
|                   Clamped boundary|                            clamped|
+-----------------------------------------------------------------------+

-------------------- Output Preprocessing ( Zone 0 ) --------------------
Screen output fields: INNER_ITER, WALL_TIME, RMS_DENSITY, RMS_ENERGY, LIFT, DRAG
History output group(s): ITER, RMS_RES, AERO_COEFF
Convergence field(s): RMS_DENSITY, DRAG
Warning: No (valid) fields chosen for time convergence monitoring. Time convergence monitoring inactive.
Volume output fields: COORDINATES, SOLUTION, PRIMITIVE

-------------------- Output Preprocessing ( Zone 1 ) --------------------
Screen output fields: OUTER_ITER, INNER_ITER, RMS_UTOL, RMS_RTOL, RMS_ETOL, VMS
History output group(s): ITER, RMS_RES
Convergence field(s): RMS_UTOL, RMS_ETOL
Warning: No (valid) fields chosen for time convergence monitoring. Time convergence monitoring inactive.
Volume output fields: COORDINATES, SOLUTION, STRESS

------------------- Output Preprocessing ( Multizone ) ------------------
Screen output fields: OUTER_ITER, AVG_BGS_RES[0], AVG_BGS_RES[1], DEFORM_MIN_VOLUME[0], DEFORM_ITER[0]
History output group(s): ITER, AERO_COEFF[0], RMS_RES[0], RMS_RES[1], AVG_BGS_RES[0], AVG_BGS_RES[1]
Convergence field(s): AVG_BGS_RES[0], AVG_BGS_RES[1]
Warning: No (valid) fields chosen for time convergence monitoring. Time convergence monitoring inactive.

------------------- Geometry Preprocessing ( Zone 0 ) -------------------
Reading zone 0 from native SU2 ASCII mesh.
Three dimensional problem.
12543 grid points before partitioning.
53798 volume elements before partitioning.
3 surface markers.
426 boundary elements in index 0 (Marker = farfield).
1296 boundary elements in index 1 (Marker = symmetry).
12948 boundary elements in index 2 (Marker = flowbound).
Executing the partitioning functions.
Building the graph adjacency structure.
Calling ParMETIS... graph partitioning complete (9846 edge cuts).
Distributing ParMETIS coloring.
Rebalancing vertices.
Rebalancing volume element connectivity.
Rebalancing markers and surface elements.
19090 vertices including ghost points. 
68246 interior elements including halo cells. 
68246 tetrahedra.
Establishing MPI communication patterns.
Setting point connectivity.
Renumbering points (Reverse Cuthill McKee Ordering).
Recomputing point connectivity.
Setting element connectivity.
Checking the numerical grid orientation.
All volume elements are correctly orientend.
There has been a re-orientation of 5706 TRIANGLE surface elements.
Identifying edges and vertices.
Setting the control volume structure.
Volume of the computational grid: 2446.47.
Searching for the closest normal neighbors to the surfaces.
Storing a mapping from global to local point index.
Compute the surface curvature.
Max K: 3441.49. Mean K: 53.7674. Standard deviation K: 160.107.
Checking for periodicity.
Computing mesh quality statistics for the dual control volumes.
+--------------------------------------------------------------+
|           Mesh Quality Metric|        Minimum|        Maximum|
+--------------------------------------------------------------+
|    Orthogonality Angle (deg.)|        52.0964|        83.5819|
|     CV Face Area Aspect Ratio|        1.58592|        1723.78|
|           CV Sub-Volume Ratio|        1.01537|          25610|
+--------------------------------------------------------------+
Finding max control volume width.
Communicating number of neighbors.
Semi-span length = 2.0792 m.
Wetted area = 0.0169485 m^2.
Area projection in the x-plane = 0.249582 m^2, y-plane = 0.000667432 m^2, z-plane = 2.04026 m^2.
Max. coordinate in the x-direction = 1 m, y-direction = 2.0792 m, z-direction = 0.0792007 m.
Min. coordinate in the x-direction = 0 m, y-direction = -2.59282e-18 m, z-direction = -0.042375 m.
Checking if Euler & Symmetry markers are straight/plane:
Boundary marker flowbound is NOT a single plane.
Boundary marker symmetry is a single plane.

------------------- Geometry Preprocessing ( Zone 1 ) -------------------
Reading zone 1 from native SU2 ASCII mesh.
Three dimensional problem.
3521 grid points before partitioning.
11494 volume elements before partitioning.
2 surface markers.
6184 boundary elements in index 0 (Marker = feabound).
127 boundary elements in index 1 (Marker = clamped).
Executing the partitioning functions.
Building the graph adjacency structure.
Calling ParMETIS... graph partitioning complete (2607 edge cuts).
Distributing ParMETIS coloring.
Rebalancing vertices.
Rebalancing volume element connectivity.
Rebalancing markers and surface elements.
5419 vertices including ghost points. 
14543 interior elements including halo cells. 
14543 tetrahedra.
Establishing MPI communication patterns.
Setting point connectivity.
Renumbering points (Reverse Cuthill McKee Ordering).
Recomputing point connectivity.
Setting element connectivity.
Checking the numerical grid orientation.
All volume elements are correctly orientend.
There has been a re-orientation of 1577 TRIANGLE surface elements.
Identifying edges and vertices.
Volume of the computational grid: 0.220997.
Searching for the closest normal neighbors to the surfaces.
Storing a mapping from global to local point index.
Checking for periodicity.
Semi-span length = 2.0792 m.
Surface area = 3.2e-31 m^2.
Area projection in the x-plane = 0.249549 m^2, y-plane = 0.0825494 m^2, z-plane = 2.01113 m^2.
Max. coordinate in the x-direction = 1 m, y-direction = 2.0792 m, z-direction = 0.0792007 m.
Min. coordinate in the x-direction = 0 m, y-direction = -2.59113e-18 m, z-direction = -0.042375 m.
Checking if Euler & Symmetry markers are straight/plane:
Boundary marker flowbound is a single plane.
Boundary marker feabound is NOT a single plane.
Boundary marker symmetry is a single plane.
Boundary marker feabound is NOT a single plane.
Computing wall distances.

-------------------- Solver Preprocessing ( Zone 0 ) --------------------
Inviscid flow: Computing density based on free-stream
temperature and pressure using the ideal gas law.
Force coefficients computed using free-stream values.

-- Models:
+------------------------------------------------------------------------------+
|          Viscosity Model|        Conductivity Model|              Fluid Model|
+------------------------------------------------------------------------------+
|                        -|                         -|                IDEAL_GAS|
+------------------------------------------------------------------------------+
-- Fluid properties:
+------------------------------------------------------------------------------+
|                  Name|    Dim. value|    Ref. value|      Unit|Non-dim. value|
+------------------------------------------------------------------------------+
|          Gas Constant|        287.87|             1|  N.m/kg.K|        287.87|
|      Spec. Heat Ratio|             -|             -|         -|           1.4|
+------------------------------------------------------------------------------+
-- Initial and free-stream conditions:
+------------------------------------------------------------------------------+
|                  Name|    Dim. value|    Ref. value|      Unit|Non-dim. value|
+------------------------------------------------------------------------------+
|       Static Pressure|        101325|             1|        Pa|        101325|
|               Density|       1.22152|             1|    kg/m^3|       1.22152|
|           Temperature|        288.15|             1|         K|        288.15|
|          Total Energy|        221891|             1|   m^2/s^2|        221891|
|            Velocity-X|       170.285|             1|       m/s|       170.285|
|            Velocity-Y|             0|             1|       m/s|             0|
|            Velocity-Z|       5.94649|             1|       m/s|       5.94649|
|    Velocity Magnitude|       170.389|             1|       m/s|       170.389|
+------------------------------------------------------------------------------+
|           Mach Number|             -|             -|         -|           0.5|
+------------------------------------------------------------------------------+
Initialize Jacobian structure (Euler). MG level: 0.
Initialize Jacobian structure (Mesh Deformation).

------------------- Numerics Preprocessing ( Zone 0 ) -------------------

----------------- Integration Preprocessing ( Zone 0 ) ------------------

------------------- Iteration Preprocessing ( Zone 0 ) ------------------
Euler/Navier-Stokes/RANS fluid iteration.

-------------------- Solver Preprocessing ( Zone 1 ) --------------------
Filename: default_element_properties_1.dat.
There is no element-based properties file.
The structural domain has uniform properties.
Initialize Jacobian structure (Non-Linear Elasticity).

------------------- Numerics Preprocessing ( Zone 1 ) -------------------

----------------- Integration Preprocessing ( Zone 1 ) ------------------

------------------- Iteration Preprocessing ( Zone 1 ) ------------------
FEM iteration.

------------------- Multizone Interface Preprocessing -------------------
From zone 1 to zone 0:
 Setting coupling using a nearest neighbor approach.
  Avg/max distance to closest donor point: 0.0120991/0.0298857
 Transferring boundary displacements from the structural solver.
From zone 0 to zone 1:
 Setting coupling using the mirror approach, "transposing" coefficients from opposite mesh.
 Transferring fluid forces.

------------------------------ Begin Solver -----------------------------

Simulation Run using the Multizone Driver
CSysSolve::BCGSTAB(): system solved by initial guess.
WARNING: SU2 was not compiled for an AVX-capable architecture.
+-----------------------------------------------------------------------------+
|                             Zone 0 (Comp. Fluid)                            |
+-----------------------------------------------------------------------------+
|  Inner_Iter|   Time(sec)|    rms[Rho]|   rms[RhoE]|          CL|          CD|
+-----------------------------------------------------------------------------+
|           0|  4.5208e-02|   -1.847628|    3.636444|    0.297764|    0.190396|
|           1|  3.4890e-02|   -1.780552|    3.695347|    0.320937|    0.113904|
|           2|  3.1382e-02|   -1.728799|    3.738798|    0.307941|    0.014652|
|           3|  3.0420e-02|   -1.728924|    3.751244|    0.295456|   -0.024702|
|           4|  2.8783e-02|   -1.729462|    3.748829|    0.283596|   -0.027757|
|           5|  2.7596e-02|   -1.730396|    3.742979|    0.274132|   -0.019250|
|           6|  2.6773e-02|   -1.764886|    3.709337|    0.269288|   -0.009492|
|           7|  2.6279e-02|   -1.824779|    3.653280|    0.269295|   -0.001362|
|           8|  2.5675e-02|   -1.860083|    3.620745|    0.273311|    0.004526|
|           9|  2.5721e-02|   -1.883508|    3.599256|    0.280049|    0.008123|
|          10|  2.5752e-02|   -1.934721|    3.549456|    0.287834|    0.009602|
|          11|  2.5551e-02|   -2.014354|    3.467860|    0.294994|    0.009306|
|          12|  2.5549e-02|   -2.092682|    3.385074|    0.300416|    0.007741|
|          13|  2.5266e-02|   -2.148081|    3.330463|    0.303777|    0.005531|
|          14|  2.5080e-02|   -2.198038|    3.286593|    0.305385|    0.003345|
|          15|  2.4863e-02|   -2.265546|    3.224322|    0.305829|    0.001762|
|          16|  2.4618e-02|   -2.349868|    3.141852|    0.305688|    0.001123|
|          17|  2.4441e-02|   -2.431453|    3.058741|    0.305402|    0.001438|
|          18|  2.4593e-02|   -2.496403|    2.989451|    0.305269|    0.002422|
|          19|  2.4465e-02|   -2.554785|    2.925980|    0.305470|    0.003632|
|          20|  2.4350e-02|   -2.622378|    2.857226|    0.306083|    0.004641|
|          21|  2.4323e-02|   -2.700650|    2.786060|    0.307059|    0.005174|
|          22|  2.4330e-02|   -2.778235|    2.720124|    0.308229|    0.005172|
|          23|  2.4239e-02|   -2.845667|    2.657325|    0.309355|    0.004761|
|          24|  2.4157e-02|   -2.906823|    2.590190|    0.310202|    0.004169|
|          25|  2.4048e-02|   -2.971617|    2.517933|    0.310626|    0.003632|
|          26|  2.3996e-02|   -3.043677|    2.446227|    0.310614|    0.003307|
|          27|  2.3902e-02|   -3.117409|    2.378261|    0.310279|    0.003245|
|          28|  2.3889e-02|   -3.184520|    2.311621|    0.309805|    0.003397|
|          29|  2.3901e-02|   -3.244766|    2.243924|    0.309383|    0.003657|
|          30|  2.3830e-02|   -3.307179|    2.175535|    0.309147|    0.003913|
|          31|  2.3895e-02|   -3.378699|    2.106843|    0.309140|    0.004081|
|          32|  2.3832e-02|   -3.455072|    2.037380|    0.309317|    0.004130|
|          33|  2.3804e-02|   -3.523976|    1.968503|    0.309581|    0.004077|
|          34|  2.3760e-02|   -3.581157|    1.903231|    0.309822|    0.003964|
|          35|  2.3699e-02|   -3.637766|    1.841621|    0.309960|    0.003843|
|          36|  2.3643e-02|   -3.705294|    1.779359|    0.309965|    0.003755|
|          37|  2.3612e-02|   -3.781654|    1.713109|    0.309856|    0.003718|
|          38|  2.3596e-02|   -3.852772|    1.644734|    0.309685|    0.003730|
|          39|  2.3544e-02|   -3.909991|    1.578730|    0.309514|    0.003773|
|          40|  2.3490e-02|   -3.962985|    1.515724|    0.309391|    0.003825|
|          41|  2.3444e-02|   -4.025338|    1.451654|    0.309338|    0.003867|
|          42|  2.3400e-02|   -4.097353|    1.384316|    0.309351|    0.003888|
|          43|  2.3417e-02|   -4.165861|    1.317555|    0.309405|    0.003887|
|          44|  2.3398e-02|   -4.221123|    1.256651|    0.309468|    0.003871|
|          45|  2.3376e-02|   -4.271891|    1.200044|    0.309514|    0.003848|
|          46|  2.3332e-02|   -4.333443|    1.139925|    0.309528|    0.003828|
|          47|  2.3299e-02|   -4.409348|    1.071330|    0.309509|    0.003817|
|          48|  2.3268e-02|   -4.487126|    0.998068|    0.309468|    0.003814|
|          49|  2.3260e-02|   -4.550256|    0.929737|    0.309421|    0.003819|
|          50|  2.3226e-02|   -4.600178|    0.870844|    0.309381|    0.003828|
|          51|  2.3194e-02|   -4.653384|    0.815311|    0.309358|    0.003837|
|          52|  2.3176e-02|   -4.718760|    0.755360|    0.309354|    0.003843|
|          53|  2.3157e-02|   -4.789094|    0.690882|    0.309362|    0.003845|
|          54|  2.3150e-02|   -4.850481|    0.628259|    0.309377|    0.003843|
|          55|  2.3163e-02|   -4.901536|    0.570876|    0.309389|    0.003840|
|          56|  2.3217e-02|   -4.955700|    0.513341|    0.309396|    0.003836|
|          57|  2.3223e-02|   -5.023140|    0.448109|    0.309394|    0.003833|
|          58|  2.3214e-02|   -5.099322|    0.375196|    0.309386|    0.003832|
|          59|  2.3182e-02|   -5.168413|    0.304390|    0.309374|    0.003832|
|          60|  2.3204e-02|   -5.221854|    0.245762|    0.309364|    0.003833|
|          61|  2.3179e-02|   -5.270428|    0.196442|    0.309357|    0.003834|
|          62|  2.3169e-02|   -5.328479|    0.144500|    0.309354|    0.003836|
|          63|  2.3149e-02|   -5.397608|    0.083394|    0.309355|    0.003836|
|          64|  2.3160e-02|   -5.466540|    0.017317|    0.309358|    0.003836|
|          65|  2.3154e-02|   -5.524576|   -0.044903|    0.309361|    0.003836|
|          66|  2.3121e-02|   -5.576026|   -0.101335|    0.309364|    0.003836|
|          67|  2.3103e-02|   -5.633484|   -0.159401|    0.309364|    0.003835|
|          68|  2.3074e-02|   -5.701616|   -0.225419|    0.309363|    0.003835|
|          69|  2.3054e-02|   -5.772196|   -0.295852|    0.309361|    0.003835|
|          70|  2.3022e-02|   -5.833162|   -0.359706|    0.309359|    0.003835|
|          71|  2.3015e-02|   -5.884662|   -0.412064|    0.309358|    0.003835|
|          72|  2.2984e-02|   -5.939080|   -0.461705|    0.309357|    0.003835|
|          73|  2.2981e-02|   -6.005207|   -0.519955|    0.309357|    0.003835|
|          74|  2.2964e-02|   -6.078985|   -0.588393|    0.309357|    0.003835|
|          75|  2.2947e-02|   -6.146758|   -0.657570|    0.309358|    0.003835|
|          76|  2.2943e-02|   -6.200552|   -0.717029|    0.309359|    0.003835|
|          77|  2.2913e-02|   -6.248601|   -0.768601|    0.309359|    0.003835|
|          78|  2.2883e-02|   -6.303703|   -0.823457|    0.309359|    0.003835|
|          79|  2.2861e-02|   -6.369353|   -0.887932|    0.309359|    0.003835|
|          80|  2.2844e-02|   -6.438495|   -0.957402|    0.309359|    0.003835|
|          81|  2.2818e-02|   -6.502224|   -1.021950|    0.309358|    0.003835|
|          82|  2.2778e-02|   -6.560820|   -1.078954|    0.309358|    0.003835|
|          83|  2.2749e-02|   -6.622564|   -1.136504|    0.309358|    0.003835|
|          84|  2.2742e-02|   -6.692017|   -1.202000|    0.309358|    0.003835|
|          85|  2.2728e-02|   -6.763041|   -1.272319|    0.309359|    0.003835|
|          86|  2.2712e-02|   -6.823837|   -1.335800|    0.309359|    0.003835|
|          87|  2.2688e-02|   -6.871707|   -1.386289|    0.309359|    0.003835|
|          88|  2.2665e-02|   -6.917432|   -1.432206|    0.309359|    0.003835|
|          89|  2.2649e-02|   -6.972178|   -1.485762|    0.309359|    0.003835|
|          90|  2.2631e-02|   -7.037680|   -1.550522|    0.309359|    0.003835|
|          91|  2.2604e-02|   -7.107022|   -1.620139|    0.309359|    0.003835|
|          92|  2.2596e-02|   -7.172476|   -1.685842|    0.309359|    0.003835|
|          93|  2.2575e-02|   -7.233998|   -1.746463|    0.309359|    0.003835|
|          94|  2.2581e-02|   -7.297391|   -1.808171|    0.309359|    0.003835|
|          95|  2.2604e-02|   -7.364498|   -1.874014|    0.309359|    0.003835|
|          96|  2.2603e-02|   -7.428610|   -1.937944|    0.309359|    0.003835|
|          97|  2.2595e-02|   -7.481639|   -1.991251|    0.309359|    0.003835|
|          98|  2.2574e-02|   -7.525924|   -2.035145|    0.309359|    0.003835|
|          99|  2.2551e-02|   -7.572695|   -2.080611|    0.309359|    0.003835|
|         100|  2.2533e-02|   -7.630237|   -2.136443|    0.309359|    0.003835|
|         101|  2.2521e-02|   -7.697887|   -2.202597|    0.309359|    0.003835|
|         102|  2.2500e-02|   -7.768054|   -2.271986|    0.309359|    0.003835|
|         103|  2.2491e-02|   -7.833724|   -2.337652|    0.309359|    0.003835|
|         104|  2.2490e-02|   -7.895264|   -2.399366|    0.309359|    0.003835|
|         105|  2.2489e-02|   -7.957458|   -2.461183|    0.309359|    0.003835|
|         106|  2.2469e-02|   -8.021121|   -2.523674|    0.309359|    0.003835|
|         107|  2.2462e-02|   -8.081026|   -2.581983|    0.309359|    0.003835|
|         108|  2.2453e-02|   -8.133058|   -2.632563|    0.309359|    0.003835|
|         109|  2.2433e-02|   -8.181330|   -2.679577|    0.309359|    0.003835|
|         110|  2.2415e-02|   -8.234492|   -2.731252|    0.309359|    0.003835|
|         111|  2.2404e-02|   -8.297221|   -2.792087|    0.309359|    0.003835|
|         112|  2.2394e-02|   -8.366772|   -2.859846|    0.309359|    0.003835|
|         113|  2.2381e-02|   -8.435895|   -2.928182|    0.309359|    0.003835|
|         114|  2.2374e-02|   -8.499914|   -2.992609|    0.309359|    0.003835|
|         115|  2.2419e-02|   -8.560797|   -3.054031|    0.309359|    0.003835|
|         116|  2.2423e-02|   -8.622632|   -3.115356|    0.309359|    0.003835|
|         117|  2.2419e-02|   -8.685328|   -3.176408|    0.309359|    0.003835|
|         118|  2.2422e-02|   -8.744843|   -3.234114|    0.309359|    0.003835|
|         119|  2.2407e-02|   -8.799360|   -3.287496|    0.309359|    0.003835|
|         120|  2.2393e-02|   -8.853037|   -3.340435|    0.309359|    0.003835|
|         121|  2.2378e-02|   -8.911988|   -3.398259|    0.309359|    0.003835|
|         122|  2.2370e-02|   -8.978309|   -3.462876|    0.309359|    0.003835|
|         123|  2.2360e-02|   -9.048398|   -3.531427|    0.309359|    0.003835|
|         124|  2.2354e-02|   -9.116410|   -3.599022|    0.309359|    0.003835|
|         125|  2.2338e-02|   -9.179982|   -3.663234|    0.309359|    0.003835|
|         126|  2.2331e-02|   -9.241745|   -3.725531|    0.309359|    0.003835|
|         127|  2.2309e-02|   -9.304725|   -3.788028|    0.309359|    0.003835|
|         128|  2.2303e-02|   -9.368255|   -3.850298|    0.309359|    0.003835|
|         129|  2.2307e-02|   -9.429328|   -3.910290|    0.309359|    0.003835|
|         130|  2.2291e-02|   -9.487335|   -3.967890|    0.309359|    0.003835|
|         131|  2.2272e-02|   -9.545910|   -4.026239|    0.309359|    0.003835|
|         132|  2.2260e-02|   -9.609373|   -4.088967|    0.309359|    0.003835|
|         133|  2.2247e-02|   -9.678487|   -4.156818|    0.309359|    0.003835|
|         134|  2.2226e-02|   -9.749717|   -4.227005|    0.309359|    0.003835|
|         135|  2.2214e-02|   -9.818479|   -4.295706|    0.309359|    0.003835|
|         136|  2.2202e-02|   -9.883494|   -4.361477|    0.309359|    0.003835|
|         137|  2.2196e-02|   -9.947203|   -4.425806|    0.309359|    0.003835|
|         138|  2.2177e-02|  -10.011913|   -4.490336|    0.309359|    0.003835|
|         139|  2.2159e-02|  -10.076915|   -4.554617|    0.309359|    0.003835|
|         140|  2.2154e-02|  -10.139921|   -4.617135|    0.309359|    0.003835|
|         141|  2.2137e-02|  -10.200805|   -4.678116|    0.309359|    0.003835|
|         142|  2.2120e-02|  -10.262796|   -4.740344|    0.309359|    0.003835|
|         143|  2.2113e-02|  -10.329392|   -4.806697|    0.309359|    0.003835|
|         144|  2.2097e-02|  -10.400936|   -4.877386|    0.309359|    0.003835|
|         145|  2.2085e-02|  -10.473986|   -4.949662|    0.309359|    0.003835|
|         146|  2.2074e-02|  -10.544255|   -5.019967|    0.309359|    0.003835|
|         147|  2.2063e-02|  -10.610568|   -5.087080|    0.309359|    0.003835|
|         148|  2.2054e-02|  -10.675325|   -5.152605|    0.309359|    0.003835|
|         149|  2.2058e-02|  -10.740951|   -5.218225|    0.309359|    0.003835|
|         150|  2.2093e-02|  -10.807048|   -5.283711|    0.309359|    0.003835|
|         151|  2.2138e-02|  -10.871552|   -5.347818|    0.309359|    0.003835|
|         152|  2.2150e-02|  -10.934286|   -5.410901|    0.309359|    0.003835|
|         153|  2.2139e-02|  -10.998381|   -5.475685|    0.309359|    0.003835|
|         154|  2.2124e-02|  -11.067273|   -5.544699|    0.309359|    0.003835|
|         155|  2.2146e-02|  -11.141265|   -5.617912|    0.309359|    0.003835|
|         156|  2.2142e-02|  -11.216256|   -5.692037|    0.309359|    0.003835|
|         157|  2.2134e-02|  -11.287289|   -5.763103|    0.309359|    0.003835|
|         158|  2.2123e-02|  -11.353170|   -5.829851|    0.309359|    0.003835|
|         159|  2.2114e-02|  -11.417158|   -5.894643|    0.309359|    0.003835|
|         160|  2.2105e-02|  -11.482801|   -5.959789|    0.309359|    0.003835|
|         161|  2.2124e-02|  -11.549233|   -6.025113|    0.309359|    0.003835|
|         162|  2.2127e-02|  -11.614549|   -6.089620|    0.309359|    0.003835|
|         163|  2.2113e-02|  -11.678486|   -6.154213|    0.309359|    0.003835|
|         164|  2.2097e-02|  -11.743624|   -6.220415|    0.309359|    0.003835|
|         165|  2.2087e-02|  -11.813691|   -6.291070|    0.309359|    0.003835|
|         166|  2.2080e-02|  -11.889467|   -6.365637|    0.309359|    0.003835|
|         167|  2.2072e-02|  -11.965680|   -6.440365|    0.309359|    0.003835|
|         168|  2.2063e-02|  -12.035679|   -6.510774|    0.309359|    0.003835|
|         169|  2.2054e-02|  -12.099477|   -6.574796|    0.309359|    0.003835|
|         170|  2.2050e-02|  -12.161625|   -6.637419|    0.309359|    0.003835|
|         171|  2.2046e-02|  -12.227152|   -6.701650|    0.309359|    0.003835|
|         172|  2.2046e-02|  -12.293857|   -6.765413|    0.309359|    0.003835|
|         173|  2.2038e-02|  -12.360301|   -6.831889|    0.309359|    0.003835|
|         174|  2.2030e-02|  -12.423790|   -6.898042|    0.309359|    0.003835|
|         175|  2.2030e-02|  -12.488849|   -6.963787|    0.309359|    0.003835|
|         176|  2.2022e-02|  -12.560526|   -7.035797|    0.309359|    0.003835|
|         177|  2.2019e-02|  -12.634915|   -7.108877|    0.309359|    0.003835|
|         178|  2.2010e-02|  -12.711065|   -7.183900|    0.309359|    0.003835|
|         179|  2.2001e-02|  -12.776451|   -7.249743|    0.309359|    0.003835|
|         180|  2.1996e-02|  -12.832966|   -7.308050|    0.309359|    0.003835|
|         181|  2.2000e-02|  -12.884083|   -7.360061|    0.309359|    0.003835|
|         182|  2.1997e-02|  -12.951311|   -7.427417|    0.309359|    0.003835|
|         183|  2.1988e-02|  -13.006511|   -7.479475|    0.309359|    0.003835|
|         184|  2.1997e-02|  -13.065274|   -7.537783|    0.309359|    0.003835|
|         185|  2.1994e-02|  -13.114274|   -7.587188|    0.309359|    0.003835|
|         186|  2.1985e-02|  -13.166169|   -7.641386|    0.309359|    0.003835|
|         187|  2.1976e-02|  -13.208500|   -7.693083|    0.309359|    0.003835|
|         188|  2.1963e-02|  -13.248220|   -7.725908|    0.309359|    0.003835|
|         189|  2.1958e-02|  -13.278191|   -7.761221|    0.309359|    0.003835|
|         190|  2.1956e-02|  -13.285808|   -7.777191|    0.309359|    0.003835|
|         191|  2.1948e-02|  -13.315409|   -7.801125|    0.309359|    0.003835|
|         192|  2.1947e-02|  -13.344992|   -7.829266|    0.309359|    0.003835|
|         193|  2.1943e-02|  -13.321810|   -7.805426|    0.309359|    0.003835|
|         194|  2.1930e-02|  -13.329024|   -7.828126|    0.309359|    0.003835|
|         195|  2.1916e-02|  -13.350487|   -7.857855|    0.309359|    0.003835|
|         196|  2.1909e-02|  -13.334840|   -7.833763|    0.309359|    0.003835|
|         197|  2.1898e-02|  -13.346563|   -7.840407|    0.309359|    0.003835|
|         198|  2.1892e-02|  -13.343064|   -7.833309|    0.309359|    0.003835|
|         199|  2.1880e-02|  -13.348706|   -7.842378|    0.309359|    0.003835|
|         200|  2.1883e-02|  -13.398367|   -7.878246|    0.309359|    0.003835|
|         201|  2.1868e-02|  -13.403628|   -7.878820|    0.309359|    0.003835|
|         202|  2.1853e-02|  -13.435937|   -7.904232|    0.309359|    0.003835|
|         203|  2.1847e-02|  -13.382692|   -7.867879|    0.309359|    0.003835|
|         204|  2.1836e-02|  -13.398486|   -7.883845|    0.309359|    0.003835|
|         205|  2.1826e-02|  -13.371410|   -7.863209|    0.309359|    0.003835|
|         206|  2.1813e-02|  -13.380467|   -7.861005|    0.309359|    0.003835|
|         207|  2.1802e-02|  -13.376404|   -7.880909|    0.309359|    0.003835|
|         208|  2.1786e-02|  -13.379027|   -7.882523|    0.309359|    0.003835|
|         209|  2.1777e-02|  -13.386820|   -7.876560|    0.309359|    0.003835|
|         210|  2.1760e-02|  -13.365333|   -7.839723|    0.309359|    0.003835|
|         211|  2.1741e-02|  -13.387023|   -7.883103|    0.309359|    0.003835|
|         212|  2.1741e-02|  -13.384706|   -7.867334|    0.309359|    0.003835|
|         213|  2.1732e-02|  -13.340907|   -7.825440|    0.309359|    0.003835|
|         214|  2.1715e-02|  -13.393062|   -7.882231|    0.309359|    0.003835|
|         215|  2.1721e-02|  -13.381236|   -7.886066|    0.309359|    0.003835|
|         216|  2.1707e-02|  -13.322835|   -7.823460|    0.309359|    0.003835|
|         217|  2.1692e-02|  -13.344095|   -7.851926|    0.309359|    0.003835|
|         218|  2.1679e-02|  -13.369164|   -7.846017|    0.309359|    0.003835|
|         219|  2.1661e-02|  -13.381623|   -7.891872|    0.309359|    0.003835|
|         220|  2.1652e-02|  -13.379327|   -7.876480|    0.309359|    0.003835|
|         221|  2.1638e-02|  -13.358221|   -7.843345|    0.309359|    0.003835|
|         222|  2.1630e-02|  -13.405558|   -7.892442|    0.309359|    0.003835|
|         223|  2.1617e-02|  -13.389393|   -7.896894|    0.309359|    0.003835|
|         224|  2.1604e-02|  -13.411294|   -7.885856|    0.309359|    0.003835|
|         225|  2.1598e-02|  -13.374525|   -7.837311|    0.309359|    0.003835|
|         226|  2.1588e-02|  -13.436683|   -7.909287|    0.309359|    0.003835|
|         227|  2.1574e-02|  -13.387242|   -7.881824|    0.309359|    0.003835|
|         228|  2.1561e-02|  -13.400915|   -7.889580|    0.309359|    0.003835|
|         229|  2.1547e-02|  -13.388203|   -7.851149|    0.309359|    0.003835|
|         230|  2.1541e-02|  -13.354676|   -7.824708|    0.309359|    0.003835|
|         231|  2.1537e-02|  -13.358992|   -7.845636|    0.309359|    0.003835|
|         232|  2.1521e-02|  -13.367302|   -7.868437|    0.309359|    0.003835|
|         233|  2.1507e-02|  -13.375021|   -7.870080|    0.309359|    0.003835|
|         234|  2.1500e-02|  -13.382653|   -7.875390|    0.309359|    0.003835|
|         235|  2.1495e-02|  -13.379479|   -7.873804|    0.309359|    0.003835|
|         236|  2.1486e-02|  -13.383433|   -7.885554|    0.309359|    0.003835|
|         237|  2.1473e-02|  -13.368697|   -7.846030|    0.309359|    0.003835|
|         238|  2.1465e-02|  -13.348688|   -7.837338|    0.309359|    0.003835|
|         239|  2.1458e-02|  -13.412316|   -7.879689|    0.309359|    0.003835|
|         240|  2.1446e-02|  -13.396865|   -7.880554|    0.309359|    0.003835|
|         241|  2.1435e-02|  -13.374231|   -7.854887|    0.309359|    0.003835|
|         242|  2.1425e-02|  -13.414970|   -7.884318|    0.309359|    0.003835|
+-----------------------------------------------------------------------------+
|                              Zone 1 (Structure)                             |
+-----------------------------------------------------------------------------+
|  Outer_Iter|  Inner_Iter|      rms[U]|      rms[R]|      rms[E]|    VonMises|
+-----------------------------------------------------------------------------+
|           0|           0|   -2.126779|    2.705435|    0.140528|  1.2615e+06|
|           0|           1|   -3.069083|    3.466520|   -0.463389|  1.9567e+06|
|           0|           2|   -2.790503|    3.164747|   -0.221574|  9.4492e+05|
|           0|           3|   -3.099619|    2.996550|   -0.773934|  6.3371e+05|
|           0|           4|   -2.698768|    3.096622|   -0.440368|  1.4349e+06|
|           0|           5|   -1.995111|    3.115063|    0.127800|  3.5426e+06|
|           0|           6|   -2.760328|    3.403311|    0.040977|  7.2639e+05|
|           0|           7|   -2.410901|    2.921623|   -0.317612|  1.7465e+06|
|           0|           8|   -2.988973|    3.438814|   -0.374465|  8.1132e+05|
|           0|           9|   -3.541836|    2.947000|   -1.388848|  8.1462e+05|
|           0|          10|   -1.198578|    2.746027|    0.859548|  4.8239e+06|
|           0|          11|   -2.958548|    3.919040|    0.282698|  5.4899e+06|
|           0|          12|   -2.214072|    3.739127|    0.601674|  2.1450e+06|
|           0|          13|   -2.809848|    3.462537|   -0.193863|  1.4064e+06|
|           0|          14|   -2.879342|    3.025747|   -0.669081|  1.3846e+06|
|           0|          15|   -3.045469|    3.102936|   -0.796780|  1.4718e+06|
|           0|          16|   -3.003870|    2.890910|   -0.865156|  1.4260e+06|
|           0|          17|   -2.567756|    2.972324|   -0.518962|  1.5870e+06|
|           0|          18|   -3.565307|    3.401827|   -0.959669|  1.5865e+06|
|           0|          19|   -3.924031|    2.986232|   -1.612020|  1.5827e+06|
|           0|          20|   -3.236037|    2.998382|   -0.982670|  1.4311e+06|
|           0|          21|   -2.845066|    2.646260|   -0.837866|  1.5320e+06|
|           0|          22|   -3.370068|    3.156691|   -0.892369|  1.4554e+06|
|           0|          23|   -3.725505|    2.910287|   -1.646754|  1.4596e+06|
|           0|          24|   -2.617486|    2.748434|   -0.665278|  1.6705e+06|
|           0|          25|   -3.794189|    3.475195|   -0.994752|  1.4908e+06|
|           0|          26|   -3.316841|    3.076308|   -0.889577|  1.4637e+06|
|           0|          27|   -1.918349|    2.755934|    0.043663|  3.1785e+06|
|           0|          28|   -2.797357|    3.401120|   -0.024258|  1.5211e+06|
|           0|          29|   -2.811766|    3.262306|   -0.663277|  1.5509e+06|
|           0|          30|   -3.008274|    3.021192|   -0.700731|  1.5200e+06|
|           0|          31|   -3.278733|    2.937988|   -1.140384|  1.5594e+06|
|           0|          32|   -3.472632|    2.970779|   -1.297266|  1.5443e+06|
|           0|          33|   -3.380599|    2.928592|   -1.329820|  1.5564e+06|
|           0|          34|   -2.824183|    2.949600|   -0.786221|  1.5753e+06|
|           0|          35|   -2.199924|    3.148357|   -0.114913|  2.5822e+06|
|           0|          36|   -3.124968|    3.462120|   -0.387790|  1.6294e+06|
|           0|          37|   -2.999331|    3.234855|   -0.706640|  1.5909e+06|
|           0|          38|   -3.243031|    3.042692|   -1.088410|  1.6285e+06|
|           0|          39|   -2.485978|    2.843759|   -0.526314|  1.5806e+06|
|           0|          40|   -2.313016|    3.394496|   -0.165081|  1.8373e+06|
|           0|          41|   -3.136546|    3.366316|   -0.473884|  1.6852e+06|
|           0|          42|   -1.516021|    2.944564|    0.415682|  4.1493e+06|
|           0|          43|   -2.786227|    4.022127|    0.358539|  1.9075e+06|
|           0|          44|   -3.346606|    2.922920|   -1.240279|  1.9237e+06|
|           0|          45|   -2.591758|    2.816260|   -0.665366|  1.9222e+06|
|           0|          46|   -3.240752|    3.246142|   -0.798841|  1.9570e+06|
|           0|          47|   -3.104532|    2.963259|   -1.099412|  1.9787e+06|
|           0|          48|   -3.614932|    2.710664|   -1.513100|  1.9506e+06|
|           0|          49|   -3.764249|    2.832569|   -1.730797|  1.9628e+06|
+----------------------------------------------------------------+
|                        Multizone Summary                       |
+----------------------------------------------------------------+
|  Outer_Iter| avg[bgs][0]| avg[bgs][1]|MinVolume[0]|DeformIter[0|
+----------------------------------------------------------------+
|           0|    1.350650|   -3.919741|  1.3659e-09|           0|
+-----------------------------------------------------------------------------+
|                             Zone 0 (Comp. Fluid)                            |
+-----------------------------------------------------------------------------+
|  Inner_Iter|   Time(sec)|    rms[Rho]|   rms[RhoE]|          CL|          CD|
+-----------------------------------------------------------------------------+
|           0|  6.2256e-02|   -3.949250|    1.534827|    0.308991|    0.003872|
|           1|  4.2545e-02|   -4.299355|    1.193711|    0.309229|    0.003868|
|           2|  3.5738e-02|   -4.482656|    0.997944|    0.309544|    0.003864|
|           3|  3.3280e-02|   -4.506597|    0.971873|    0.309690|    0.003860|
|           4|  3.0911e-02|   -4.540050|    0.940576|    0.309682|    0.003854|
|           5|  2.9420e-02|   -4.578875|    0.909050|    0.309617|    0.003845|
|           6|  2.8237e-02|   -4.644431|    0.848129|    0.309563|    0.003839|
|           7|  2.7239e-02|   -4.700382|    0.789753|    0.309540|    0.003837|
|           8|  2.6505e-02|   -4.731603|    0.756218|    0.309540|    0.003839|
|           9|  2.5979e-02|   -4.765874|    0.725952|    0.309551|    0.003842|
|          10|  2.5558e-02|   -4.819871|    0.678277|    0.309567|    0.003846|
|          11|  2.5272e-02|   -4.887480|    0.613437|    0.309581|    0.003849|
|          12|  2.4988e-02|   -4.952350|    0.546476|    0.309591|    0.003851|
|          13|  2.4716e-02|   -5.005255|    0.491756|    0.309596|    0.003851|
|          14|  2.4434e-02|   -5.053797|    0.445771|    0.309597|    0.003849|
|          15|  2.4207e-02|   -5.110549|    0.394255|    0.309595|    0.003848|
|          16|  2.3907e-02|   -5.180941|    0.328730|    0.309591|    0.003846|
|          17|  2.3733e-02|   -5.262588|    0.249855|    0.309587|    0.003845|
|          18|  2.3563e-02|   -5.348885|    0.163747|    0.309584|    0.003845|
|          19|  2.3450e-02|   -5.433603|    0.077367|    0.309582|    0.003845|
|          20|  2.3326e-02|   -5.515094|   -0.005688|    0.309581|    0.003846|
|          21|  2.3220e-02|   -5.596332|   -0.086389|    0.309581|    0.003847|
|          22|  2.3139e-02|   -5.680659|   -0.167604|    0.309582|    0.003847|
|          23|  2.3032e-02|   -5.767982|   -0.250737|    0.309582|    0.003847|
|          24|  2.2958e-02|   -5.854352|   -0.334381|    0.309582|    0.003847|
|          25|  2.2938e-02|   -5.934794|   -0.415172|    0.309582|    0.003847|
|          26|  2.2828e-02|   -6.007288|   -0.490263|    0.309582|    0.003847|
|          27|  2.2805e-02|   -6.074238|   -0.559791|    0.309581|    0.003846|
|          28|  2.2729e-02|   -6.140313|   -0.627046|    0.309581|    0.003846|
|          29|  2.2694e-02|   -6.209678|   -0.696236|    0.309580|    0.003846|
|          30|  2.2705e-02|   -6.284714|   -0.770104|    0.309580|    0.003846|
|          31|  2.2683e-02|   -6.365579|   -0.848817|    0.309579|    0.003846|
|          32|  2.2648e-02|   -6.449708|   -0.929955|    0.309579|    0.003847|
|          33|  2.2609e-02|   -6.531894|   -1.009574|    0.309579|    0.003847|
|          34|  2.2587e-02|   -6.606941|   -1.084602|    0.309579|    0.003847|
|          35|  2.2570e-02|   -6.674319|   -1.155311|    0.309580|    0.003847|
|          36|  2.2536e-02|   -6.739110|   -1.225018|    0.309580|    0.003847|
|          37|  2.2520e-02|   -6.806875|   -1.296721|    0.309579|    0.003847|
|          38|  2.2462e-02|   -6.878232|   -1.369951|    0.309579|    0.003846|
|          39|  2.2431e-02|   -6.948249|   -1.440855|    0.309579|    0.003846|
|          40|  2.2427e-02|   -7.011589|   -1.505984|    0.309579|    0.003846|
|          41|  2.2445e-02|   -7.068776|   -1.566027|    0.309579|    0.003846|
|          42|  2.2432e-02|   -7.125135|   -1.624567|    0.309579|    0.003846|
|          43|  2.2410e-02|   -7.184040|   -1.683760|    0.309579|    0.003847|
|          44|  2.2390e-02|   -7.243686|   -1.742815|    0.309579|    0.003847|
|          45|  2.2365e-02|   -7.300606|   -1.800611|    0.309579|    0.003847|
|          46|  2.2343e-02|   -7.355371|   -1.858584|    0.309579|    0.003847|
|          47|  2.2323e-02|   -7.412799|   -1.919767|    0.309579|    0.003847|
|          48|  2.2336e-02|   -7.476347|   -1.985073|    0.309579|    0.003846|
|          49|  2.2315e-02|   -7.543748|   -2.051309|    0.309579|    0.003846|
|          50|  2.2315e-02|   -7.608664|   -2.113706|    0.309579|    0.003846|
|          51|  2.2311e-02|   -7.667800|   -2.171198|    0.309579|    0.003846|
|          52|  2.2289e-02|   -7.725179|   -2.227786|    0.309579|    0.003846|
|          53|  2.2270e-02|   -7.786899|   -2.287749|    0.309579|    0.003846|
|          54|  2.2256e-02|   -7.853552|   -2.350981|    0.309579|    0.003847|
|          55|  2.2260e-02|   -7.919152|   -2.413522|    0.309579|    0.003847|
|          56|  2.2229e-02|   -7.978261|   -2.472781|    0.309579|    0.003847|
|          57|  2.2244e-02|   -8.033750|   -2.531467|    0.309579|    0.003847|
|          58|  2.2225e-02|   -8.093681|   -2.594703|    0.309579|    0.003847|
|          59|  2.2211e-02|   -8.161668|   -2.663894|    0.309579|    0.003846|
|          60|  2.2208e-02|   -8.232414|   -2.734158|    0.309579|    0.003846|
|          61|  2.2366e-02|   -8.296916|   -2.798604|    0.309579|    0.003846|
|          62|  2.2331e-02|   -8.353986|   -2.856581|    0.309579|    0.003846|
|          63|  2.2316e-02|   -8.412575|   -2.914971|    0.309579|    0.003846|
|          64|  2.2283e-02|   -8.480623|   -2.980099|    0.309579|    0.003846|
|          65|  2.2267e-02|   -8.555718|   -3.050944|    0.309579|    0.003846|
|          66|  2.2271e-02|   -8.626201|   -3.120060|    0.309579|    0.003846|
|          67|  2.2260e-02|   -8.684403|   -3.182128|    0.309579|    0.003846|
|          68|  2.2256e-02|   -8.737752|   -3.241222|    0.309579|    0.003846|
|          69|  2.2228e-02|   -8.799116|   -3.305838|    0.309579|    0.003846|
|          70|  2.2243e-02|   -8.871942|   -3.378680|    0.309579|    0.003846|
|          71|  2.2236e-02|   -8.946564|   -3.452799|    0.309579|    0.003846|
|          72|  2.2232e-02|   -9.010029|   -3.518201|    0.309579|    0.003846|
|          73|  2.2229e-02|   -9.063325|   -3.574716|    0.309579|    0.003846|
|          74|  2.2217e-02|   -9.120447|   -3.632982|    0.309579|    0.003846|
|          75|  2.2191e-02|   -9.190622|   -3.701453|    0.309579|    0.003846|
|          76|  2.2163e-02|   -9.268448|   -3.777275|    0.309579|    0.003846|
|          77|  2.2177e-02|   -9.337938|   -3.848136|    0.309579|    0.003846|
|          78|  2.2165e-02|   -9.391296|   -3.905904|    0.309579|    0.003846|
|          79|  2.2139e-02|   -9.440173|   -3.957749|    0.309579|    0.003846|
|          80|  2.2130e-02|   -9.499303|   -4.016254|    0.309579|    0.003846|
|          81|  2.2106e-02|   -9.570482|   -4.084932|    0.309579|    0.003846|
|          82|  2.2084e-02|   -9.642071|   -4.155595|    0.309579|    0.003846|
|          83|  2.2072e-02|   -9.702144|   -4.217898|    0.309579|    0.003846|
|          84|  2.2060e-02|   -9.754721|   -4.273260|    0.309579|    0.003846|
|          85|  2.2077e-02|   -9.814216|   -4.333360|    0.309579|    0.003846|
|          86|  2.2097e-02|   -9.887664|   -4.405583|    0.309579|    0.003846|
|          87|  2.2112e-02|   -9.967121|   -4.484364|    0.309579|    0.003846|
|          88|  2.2132e-02|  -10.035811|   -4.554595|    0.309579|    0.003846|
|          89|  2.2144e-02|  -10.088307|   -4.608804|    0.309579|    0.003846|
|          90|  2.2144e-02|  -10.138146|   -4.657531|    0.309579|    0.003846|
|          91|  2.2138e-02|  -10.198922|   -4.714484|    0.309579|    0.003846|
|          92|  2.2109e-02|  -10.270234|   -4.781640|    0.309579|    0.003846|
|          93|  2.2122e-02|  -10.339554|   -4.849320|    0.309579|    0.003846|
|          94|  2.2104e-02|  -10.397105|   -4.908195|    0.309579|    0.003846|
|          95|  2.2107e-02|  -10.449400|   -4.961983|    0.309579|    0.003846|
|          96|  2.2102e-02|  -10.510243|   -5.022464|    0.309579|    0.003846|
|          97|  2.2104e-02|  -10.584391|   -5.095023|    0.309579|    0.003846|
|          98|  2.2095e-02|  -10.662390|   -5.172198|    0.309579|    0.003846|
|          99|  2.2084e-02|  -10.728831|   -5.239543|    0.309579|    0.003846|
|         100|  2.2078e-02|  -10.781350|   -5.292602|    0.309579|    0.003846|
|         101|  2.2073e-02|  -10.833592|   -5.342658|    0.309579|    0.003846|
|         102|  2.2079e-02|  -10.896533|   -5.400961|    0.309579|    0.003846|
|         103|  2.2071e-02|  -10.967522|   -5.467040|    0.309579|    0.003846|
|         104|  2.2061e-02|  -11.033982|   -5.531232|    0.309579|    0.003846|
|         105|  2.2056e-02|  -11.089208|   -5.587380|    0.309579|    0.003846|
|         106|  2.2050e-02|  -11.141976|   -5.641597|    0.309579|    0.003846|
|         107|  2.2047e-02|  -11.205046|   -5.704472|    0.309579|    0.003846|
|         108|  2.2022e-02|  -11.281073|   -5.778903|    0.309579|    0.003846|
|         109|  2.2005e-02|  -11.359581|   -5.856118|    0.309579|    0.003846|
|         110|  2.1997e-02|  -11.426462|   -5.923562|    0.309579|    0.003846|
|         111|  2.1983e-02|  -11.481008|   -5.978785|    0.309579|    0.003846|
|         112|  2.1973e-02|  -11.536086|   -6.032383|    0.309579|    0.003846|
|         113|  2.1948e-02|  -11.600218|   -6.092527|    0.309579|    0.003846|
|         114|  2.1935e-02|  -11.669562|   -6.157347|    0.309579|    0.003846|
|         115|  2.1922e-02|  -11.732843|   -6.218651|    0.309579|    0.003846|
|         116|  2.1907e-02|  -11.786422|   -6.273110|    0.309579|    0.003846|
|         117|  2.1891e-02|  -11.840723|   -6.328499|    0.309579|    0.003846|
|         118|  2.1884e-02|  -11.906479|   -6.393191|    0.309579|    0.003846|
|         119|  2.1875e-02|  -11.984031|   -6.468402|    0.309579|    0.003846|
|         120|  2.1869e-02|  -12.061261|   -6.544036|    0.309579|    0.003846|
|         121|  2.1864e-02|  -12.126190|   -6.610148|    0.309579|    0.003846|
|         122|  2.1852e-02|  -12.180555|   -6.666509|    0.309579|    0.003846|
|         123|  2.1839e-02|  -12.236300|   -6.722038|    0.309579|    0.003846|
|         124|  2.1819e-02|  -12.301577|   -6.783579|    0.309579|    0.003846|
|         125|  2.1805e-02|  -12.369928|   -6.847303|    0.309579|    0.003846|
|         126|  2.1791e-02|  -12.431298|   -6.906562|    0.309579|    0.003846|
|         127|  2.1773e-02|  -12.483391|   -6.959326|    0.309579|    0.003846|
|         128|  2.1755e-02|  -12.538227|   -7.013372|    0.309579|    0.003846|
|         129|  2.1744e-02|  -12.605614|   -7.080762|    0.309579|    0.003846|
|         130|  2.1724e-02|  -12.681086|   -7.154764|    0.309579|    0.003846|
|         131|  2.1735e-02|  -12.751700|   -7.224448|    0.309579|    0.003846|
|         132|  2.1724e-02|  -12.809817|   -7.283015|    0.309579|    0.003846|
|         133|  2.1714e-02|  -12.863920|   -7.340588|    0.309579|    0.003846|
|         134|  2.1703e-02|  -12.918150|   -7.395825|    0.309579|    0.003846|
|         135|  2.1693e-02|  -12.977715|   -7.448947|    0.309579|    0.003846|
|         136|  2.1690e-02|  -13.031450|   -7.502680|    0.309579|    0.003846|
|         137|  2.1672e-02|  -13.089361|   -7.553877|    0.309579|    0.003846|
|         138|  2.1665e-02|  -13.108946|   -7.580613|    0.309579|    0.003846|
|         139|  2.1654e-02|  -13.151834|   -7.627146|    0.309579|    0.003846|
|         140|  2.1647e-02|  -13.210104|   -7.684125|    0.309579|    0.003846|
|         141|  2.1628e-02|  -13.220361|   -7.698349|    0.309579|    0.003846|
|         142|  2.1621e-02|  -13.266122|   -7.752954|    0.309579|    0.003846|
|         143|  2.1605e-02|  -13.297272|   -7.783833|    0.309579|    0.003846|
|         144|  2.1591e-02|  -13.299843|   -7.784812|    0.309579|    0.003846|
|         145|  2.1583e-02|  -13.325264|   -7.822362|    0.309579|    0.003846|
|         146|  2.1571e-02|  -13.341506|   -7.814022|    0.309579|    0.003846|
|         147|  2.1565e-02|  -13.357465|   -7.828772|    0.309579|    0.003846|
|         148|  2.1553e-02|  -13.356756|   -7.847451|    0.309579|    0.003846|
|         149|  2.1549e-02|  -13.362513|   -7.850792|    0.309579|    0.003846|
|         150|  2.1539e-02|  -13.358036|   -7.857006|    0.309579|    0.003846|
|         151|  2.1527e-02|  -13.374809|   -7.863745|    0.309579|    0.003846|
|         152|  2.1506e-02|  -13.366291|   -7.881078|    0.309579|    0.003846|
|         153|  2.1483e-02|  -13.352010|   -7.828665|    0.309579|    0.003846|
|         154|  2.1470e-02|  -13.372894|   -7.863646|    0.309579|    0.003846|
|         155|  2.1463e-02|  -13.401117|   -7.885787|    0.309579|    0.003846|
|         156|  2.1453e-02|  -13.387311|   -7.877592|    0.309579|    0.003846|
|         157|  2.1435e-02|  -13.399043|   -7.873533|    0.309579|    0.003846|
|         158|  2.1416e-02|  -13.386069|   -7.873503|    0.309579|    0.003846|
|         159|  2.1411e-02|  -13.384381|   -7.871632|    0.309579|    0.003846|
|         160|  2.1393e-02|  -13.398796|   -7.885679|    0.309579|    0.003846|
|         161|  2.1374e-02|  -13.364096|   -7.863817|    0.309579|    0.003846|
|         162|  2.1374e-02|  -13.373207|   -7.864885|    0.309579|    0.003846|
|         163|  2.1356e-02|  -13.400899|   -7.886495|    0.309579|    0.003846|
|         164|  2.1351e-02|  -13.394037|   -7.877559|    0.309579|    0.003846|
|         165|  2.1340e-02|  -13.393212|   -7.883647|    0.309579|    0.003846|
|         166|  2.1323e-02|  -13.369205|   -7.864046|    0.309579|    0.003846|
|         167|  2.1307e-02|  -13.375909|   -7.889069|    0.309579|    0.003846|
|         168|  2.1291e-02|  -13.390332|   -7.871574|    0.309579|    0.003846|
|         169|  2.1277e-02|  -13.392761|   -7.903685|    0.309579|    0.003846|
|         170|  2.1262e-02|  -13.419557|   -7.901243|    0.309579|    0.003846|
|         171|  2.1248e-02|  -13.378140|   -7.885889|    0.309579|    0.003846|
|         172|  2.1232e-02|  -13.370900|   -7.846156|    0.309579|    0.003846|
|         173|  2.1224e-02|  -13.409484|   -7.902965|    0.309579|    0.003846|
|         174|  2.1209e-02|  -13.397800|   -7.879552|    0.309579|    0.003846|
|         175|  2.1198e-02|  -13.385238|   -7.875765|    0.309579|    0.003846|
|         176|  2.1189e-02|  -13.339403|   -7.842829|    0.309579|    0.003846|
|         177|  2.1173e-02|  -13.390450|   -7.889504|    0.309579|    0.003846|
|         178|  2.1171e-02|  -13.437164|   -7.943671|    0.309579|    0.003846|
|         179|  2.1160e-02|  -13.426701|   -7.911711|    0.309579|    0.003846|
|         180|  2.1151e-02|  -13.425242|   -7.903753|    0.309579|    0.003846|
|         181|  2.1137e-02|  -13.354147|   -7.873836|    0.309579|    0.003846|
|         182|  2.1124e-02|  -13.388649|   -7.878750|    0.309579|    0.003846|
|         183|  2.1107e-02|  -13.413551|   -7.914343|    0.309579|    0.003846|
|         184|  2.1105e-02|  -13.432294|   -7.922194|    0.309579|    0.003846|
|         185|  2.1086e-02|  -13.378809|   -7.866708|    0.309579|    0.003846|
|         186|  2.1080e-02|  -13.415851|   -7.904931|    0.309579|    0.003846|
|         187|  2.1069e-02|  -13.368570|   -7.883012|    0.309579|    0.003846|
|         188|  2.1056e-02|  -13.394841|   -7.887088|    0.309579|    0.003846|
|         189|  2.1038e-02|  -13.369712|   -7.875636|    0.309579|    0.003846|
|         190|  2.1019e-02|  -13.452743|   -7.912449|    0.309579|    0.003846|
|         191|  2.1008e-02|  -13.383914|   -7.874907|    0.309579|    0.003846|
|         192|  2.0988e-02|  -13.365669|   -7.850877|    0.309579|    0.003846|
|         193|  2.0972e-02|  -13.361885|   -7.862218|    0.309579|    0.003846|
+-----------------------------------------------------------------------------+
|                              Zone 1 (Structure)                             |
+-----------------------------------------------------------------------------+
|  Outer_Iter|  Inner_Iter|      rms[U]|      rms[R]|      rms[E]|    VonMises|
+-----------------------------------------------------------------------------+
|           1|           0|   -4.163957|    2.598385|   -2.447407|  1.9621e+06|
|           1|           1|   -1.042245|    2.525763|    0.833832|  1.0667e+07|
|           1|           2|   -2.399581|    3.948685|    0.671788|  2.7453e+06|
|           1|           3|   -3.331738|    2.920026|   -1.219449|  2.7056e+06|
|           1|           4|   -3.885999|    2.479627|   -2.156568|  2.7054e+06|
|           1|           5|   -2.322180|    2.648020|   -0.599362|  2.6873e+06|
|           1|           6|   -3.360806|    3.290285|   -0.762545|  2.6615e+06|
|           1|           7|   -3.430205|    2.838660|   -1.425669|  2.7078e+06|
|           1|           8|   -3.573102|    2.780175|   -1.548648|  2.6953e+06|
|           1|           9|   -3.673249|    2.755182|   -1.635535|  2.7162e+06|
|           1|          10|   -4.024887|    2.621862|   -2.177488|  2.7116e+06|
|           1|          11|   -2.248779|    2.439175|   -0.505434|  2.8961e+06|
|           1|          12|   -3.353565|    2.794938|   -1.205531|  2.8901e+06|
|           1|          13|   -3.720565|    3.077792|   -1.349133|  2.8790e+06|
|           1|          14|   -2.719631|    2.596008|   -0.689333|  2.7592e+06|
|           1|          15|   -4.323199|    2.489551|   -2.795302|  2.7627e+06|
|           1|          16|   -4.289954|    2.599131|   -2.562326|  2.7638e+06|
|           1|          17|   -3.870687|    2.361089|   -2.162745|  2.7640e+06|
|           1|          18|   -2.616416|    2.353691|   -0.861563|  2.8723e+06|
|           1|          19|   -3.917118|    2.889437|   -1.745592|  2.8658e+06|
|           1|          20|   -4.253953|    2.761029|   -2.097864|  2.8564e+06|
|           1|          21|   -2.908068|    2.531026|   -0.947453|  2.7790e+06|
|           1|          22|   -3.047556|    2.722456|   -1.252996|  2.8455e+06|
|           1|          23|   -4.008879|    2.758705|   -1.927138|  2.8414e+06|
|           1|          24|   -2.426335|    2.413694|   -0.702795|  2.7985e+06|
|           1|          25|   -3.130211|    3.058727|   -0.894046|  2.7995e+06|
|           1|          26|   -2.813869|    2.866172|   -0.963185|  2.8865e+06|
|           1|          27|   -3.107415|    2.679107|   -1.173724|  2.8412e+06|
|           1|          28|   -3.246554|    2.653207|   -1.446467|  2.8764e+06|
|           1|          29|   -2.374304|    2.759694|   -0.638470|  2.7855e+06|
|           1|          30|   -3.009498|    3.035415|   -0.767970|  2.9038e+06|
|           1|          31|   -3.163093|    2.740560|   -1.278649|  2.8830e+06|
|           1|          32|   -3.706688|    2.943115|   -1.609423|  2.9182e+06|
|           1|          33|   -3.577934|    2.534231|   -1.800893|  2.9035e+06|
|           1|          34|   -3.972434|    2.769772|   -1.916390|  2.9127e+06|
|           1|          35|   -3.892277|    2.352987|   -2.138025|  2.9043e+06|
|           1|          36|   -2.459151|    2.546704|   -0.799992|  3.6847e+06|
|           1|          37|   -2.552732|    3.378569|   -0.555780|  2.9299e+06|
|           1|          38|   -3.488376|    3.319311|   -0.932233|  2.9758e+06|
|           1|          39|   -3.746660|    2.596538|   -1.962135|  2.9649e+06|
|           1|          40|   -2.961859|    2.500922|   -1.270027|  2.9706e+06|
|           1|          41|   -3.622287|    3.029192|   -1.323885|  2.9656e+06|
|           1|          42|   -2.824249|    2.446786|   -1.189934|  3.0075e+06|
|           1|          43|   -3.194179|    2.896005|   -1.149533|  2.9853e+06|
|           1|          44|   -3.694749|    2.828694|   -1.752328|  2.9897e+06|
|           1|          45|   -1.956042|    2.703163|   -0.327364|  5.3235e+06|
|           1|          46|   -2.968578|    3.467851|   -0.389750|  3.0883e+06|
|           1|          47|   -3.116753|    2.917837|   -1.248949|  3.0638e+06|
|           1|          48|   -3.681966|    2.865862|   -1.710317|  3.0685e+06|
|           1|          49|   -3.670771|    2.591888|   -1.915487|  3.0828e+06|
+----------------------------------------------------------------+
|                        Multizone Summary                       |
+----------------------------------------------------------------+
|  Outer_Iter| avg[bgs][0]| avg[bgs][1]|MinVolume[0]|DeformIter[0|
+----------------------------------------------------------------+
|           1|   -1.113057|   -3.920879|  1.3707e-09|          46|
+-----------------------------------------------------------------------------+
|                             Zone 0 (Comp. Fluid)                            |
+-----------------------------------------------------------------------------+
|  Inner_Iter|   Time(sec)|    rms[Rho]|   rms[RhoE]|          CL|          CD|
+-----------------------------------------------------------------------------+
|           0|  6.1661e-02|   -3.966167|    1.517911|    0.309100|    0.003882|
|           1|  4.1929e-02|   -4.329265|    1.165698|    0.309391|    0.003879|
|           2|  3.5395e-02|   -4.512402|    0.967552|    0.309733|    0.003874|
|           3|  3.2468e-02|   -4.533410|    0.946529|    0.309868|    0.003869|
|           4|  3.0239e-02|   -4.574471|    0.906008|    0.309838|    0.003861|
|           5|  2.8691e-02|   -4.614371|    0.872187|    0.309759|    0.003853|
|           6|  2.7618e-02|   -4.681855|    0.810787|    0.309699|    0.003847|
|           7|  2.6806e-02|   -4.742279|    0.748788|    0.309674|    0.003845|
|           8|  2.6116e-02|   -4.775543|    0.712066|    0.309675|    0.003847|
|           9|  2.5602e-02|   -4.809976|    0.681162|    0.309689|    0.003851|
|          10|  2.5182e-02|   -4.864588|    0.633516|    0.309705|    0.003855|
|          11|  2.4876e-02|   -4.933711|    0.567788|    0.309718|    0.003857|
|          12|  2.4680e-02|   -5.000368|    0.499028|    0.309727|    0.003859|
|          13|  2.4584e-02|   -5.054745|    0.442791|    0.309730|    0.003859|
|          14|  2.4446e-02|   -5.104810|    0.395737|    0.309730|    0.003857|
|          15|  2.4187e-02|   -5.163667|    0.342637|    0.309727|    0.003856|
|          16|  2.3961e-02|   -5.236696|    0.274636|    0.309723|    0.003854|
|          17|  2.3798e-02|   -5.320990|    0.192929|    0.309719|    0.003854|
|          18|  2.3630e-02|   -5.409196|    0.104589|    0.309716|    0.003853|
|          19|  2.3505e-02|   -5.494622|    0.017094|    0.309714|    0.003854|
|          20|  2.3384e-02|   -5.576019|   -0.066505|    0.309713|    0.003854|
|          21|  2.3294e-02|   -5.657283|   -0.148126|    0.309713|    0.003855|
|          22|  2.3255e-02|   -5.742262|   -0.230883|    0.309713|    0.003855|
|          23|  2.3135e-02|   -5.830591|   -0.315654|    0.309713|    0.003855|
|          24|  2.3056e-02|   -5.917532|   -0.400369|    0.309713|    0.003855|
|          25|  2.2942e-02|   -5.997438|   -0.481356|    0.309713|    0.003855|
|          26|  2.2851e-02|   -6.068393|   -0.555872|    0.309712|    0.003855|
|          27|  2.2751e-02|   -6.133533|   -0.624362|    0.309712|    0.003855|
|          28|  2.2706e-02|   -6.198061|   -0.690368|    0.309711|    0.003854|
|          29|  2.2656e-02|   -6.266071|   -0.758177|    0.309710|    0.003854|
|          30|  2.2640e-02|   -6.339565|   -0.830516|    0.309710|    0.003854|
|          31|  2.2613e-02|   -6.418511|   -0.907565|    0.309710|    0.003854|
|          32|  2.2576e-02|   -6.500561|   -0.986979|    0.309710|    0.003855|
|          33|  2.2537e-02|   -6.580858|   -1.064772|    0.309710|    0.003855|
|          34|  2.2535e-02|   -6.654191|   -1.137621|    0.309710|    0.003855|
|          35|  2.2570e-02|   -6.719651|   -1.205646|    0.309710|    0.003855|
|          36|  2.2528e-02|   -6.782237|   -1.272475|    0.309710|    0.003855|
|          37|  2.2540e-02|   -6.848001|   -1.341704|    0.309710|    0.003855|
|          38|  2.2512e-02|   -6.918210|   -1.413242|    0.309709|    0.003855|
|          39|  2.2467e-02|   -6.988149|   -1.483100|    0.309709|    0.003855|
|          40|  2.2459e-02|   -7.051977|   -1.547376|    0.309709|    0.003855|
|          41|  2.2539e-02|   -7.109524|   -1.606583|    0.309709|    0.003855|
|          42|  2.2507e-02|   -7.166097|   -1.664586|    0.309709|    0.003855|
|          43|  2.2497e-02|   -7.225554|   -1.723818|    0.309709|    0.003855|
|          44|  2.2477e-02|   -7.286271|   -1.783327|    0.309709|    0.003855|
|          45|  2.2426e-02|   -7.344225|   -1.841512|    0.309709|    0.003855|
|          46|  2.2416e-02|   -7.399278|   -1.899560|    0.309709|    0.003855|
|          47|  2.2391e-02|   -7.456301|   -1.960769|    0.309709|    0.003855|
|          48|  2.2377e-02|   -7.519493|   -2.026510|    0.309709|    0.003855|
|          49|  2.2368e-02|   -7.587210|   -2.093678|    0.309709|    0.003855|
|          50|  2.2361e-02|   -7.652894|   -2.156963|    0.309709|    0.003855|
|          51|  2.2335e-02|   -7.712299|   -2.214629|    0.309709|    0.003855|
|          52|  2.2298e-02|   -7.768982|   -2.270690|    0.309709|    0.003855|
|          53|  2.2261e-02|   -7.829627|   -2.330068|    0.309709|    0.003855|
|          54|  2.2224e-02|   -7.895664|   -2.393206|    0.309709|    0.003855|
|          55|  2.2212e-02|   -7.961223|   -2.456053|    0.309709|    0.003855|
|          56|  2.2179e-02|   -8.020029|   -2.515364|    0.309709|    0.003855|
|          57|  2.2179e-02|   -8.074283|   -2.573437|    0.309709|    0.003855|
|          58|  2.2161e-02|   -8.132551|   -2.635768|    0.309709|    0.003855|
|          59|  2.2149e-02|   -8.199548|   -2.704555|    0.309709|    0.003855|
|          60|  2.2122e-02|   -8.270602|   -2.775412|    0.309709|    0.003855|
|          61|  2.2106e-02|   -8.335980|   -2.841041|    0.309709|    0.003855|
|          62|  2.2090e-02|   -8.393036|   -2.899866|    0.309709|    0.003855|
|          63|  2.2077e-02|   -8.450560|   -2.958602|    0.309709|    0.003855|
|          64|  2.2066e-02|   -8.517795|   -3.024354|    0.309709|    0.003855|
|          65|  2.2050e-02|   -8.593664|   -3.096807|    0.309709|    0.003855|
|          66|  2.2048e-02|   -8.666265|   -3.167992|    0.309709|    0.003855|
|          67|  2.2054e-02|   -8.725574|   -3.230807|    0.309709|    0.003855|
|          68|  2.2070e-02|   -8.777491|   -3.288342|    0.309709|    0.003855|
|          69|  2.2042e-02|   -8.835977|   -3.350021|    0.309709|    0.003855|
|          70|  2.2199e-02|   -8.906391|   -3.420163|    0.309709|    0.003855|
|          71|  2.2185e-02|   -8.980335|   -3.492978|    0.309709|    0.003855|
|          72|  2.2183e-02|   -9.044418|   -3.558410|    0.309709|    0.003855|
|          73|  2.2369e-02|   -9.097894|   -3.615142|    0.309709|    0.003855|
|          74|  2.2557e-02|   -9.154260|   -3.673262|    0.309709|    0.003855|
|          75|  2.2540e-02|   -9.223807|   -3.741816|    0.309709|    0.003855|
|          76|  2.2513e-02|   -9.302322|   -3.818611|    0.309709|    0.003855|
|          77|  2.2509e-02|   -9.373516|   -3.890663|    0.309709|    0.003855|
|          78|  2.2521e-02|   -9.427445|   -3.947846|    0.309709|    0.003855|
|          79|  2.2515e-02|   -9.474769|   -3.996655|    0.309709|    0.003855|
|          80|  2.2487e-02|   -9.531411|   -4.051025|    0.309709|    0.003855|
|          81|  2.2460e-02|   -9.600706|   -4.116116|    0.309709|    0.003855|
|          82|  2.2444e-02|   -9.671850|   -4.184880|    0.309709|    0.003855|
|          83|  2.2430e-02|   -9.732256|   -4.246928|    0.309709|    0.003855|
|          84|  2.2406e-02|   -9.784503|   -4.302351|    0.309709|    0.003855|
|          85|  2.2378e-02|   -9.842798|   -4.361945|    0.309709|    0.003855|
|          86|  2.2370e-02|   -9.915134|   -4.433469|    0.309709|    0.003855|
|          87|  2.2352e-02|   -9.994598|   -4.512124|    0.309709|    0.003855|
|          88|  2.2344e-02|  -10.064327|   -4.582764|    0.309709|    0.003855|
|          89|  2.2343e-02|  -10.117246|   -4.636592|    0.309709|    0.003855|
|          90|  2.2317e-02|  -10.166130|   -4.683554|    0.309709|    0.003855|
|          91|  2.2291e-02|  -10.225540|   -4.738286|    0.309709|    0.003855|
|          92|  2.2269e-02|  -10.296546|   -4.804320|    0.309709|    0.003855|
|          93|  2.2268e-02|  -10.367334|   -4.873043|    0.309709|    0.003855|
|          94|  2.2248e-02|  -10.426854|   -4.934307|    0.309709|    0.003855|
|          95|  2.2227e-02|  -10.479841|   -4.989814|    0.309709|    0.003855|
|          96|  2.2214e-02|  -10.540060|   -5.050612|    0.309709|    0.003855|
|          97|  2.2211e-02|  -10.613548|   -5.123024|    0.309709|    0.003855|
|          98|  2.2204e-02|  -10.692055|   -5.200863|    0.309709|    0.003855|
|          99|  2.2186e-02|  -10.760088|   -5.269901|    0.309709|    0.003855|
|         100|  2.2173e-02|  -10.813959|   -5.324587|    0.309709|    0.003855|
|         101|  2.2163e-02|  -10.866813|   -5.375698|    0.309709|    0.003855|
|         102|  2.2153e-02|  -10.930720|   -5.435309|    0.309709|    0.003855|
|         103|  2.2154e-02|  -11.004126|   -5.504056|    0.309709|    0.003855|
|         104|  2.2149e-02|  -11.074012|   -5.571901|    0.309709|    0.003855|
|         105|  2.2152e-02|  -11.131311|   -5.630650|    0.309709|    0.003855|
|         106|  2.2146e-02|  -11.183692|   -5.685134|    0.309709|    0.003855|
|         107|  2.2126e-02|  -11.245378|   -5.747140|    0.309709|    0.003855|
|         108|  2.2106e-02|  -11.320684|   -5.821184|    0.309709|    0.003855|
|         109|  2.2105e-02|  -11.400082|   -5.899689|    0.309709|    0.003855|
|         110|  2.2086e-02|  -11.468589|   -5.969213|    0.309709|    0.003855|
|         111|  2.2089e-02|  -11.523835|   -6.025862|    0.309709|    0.003855|
|         112|  2.2081e-02|  -11.579331|   -6.080564|    0.309709|    0.003855|
|         113|  2.2063e-02|  -11.645120|   -6.143093|    0.309709|    0.003855|
|         114|  2.2040e-02|  -11.717547|   -6.211453|    0.309709|    0.003855|
|         115|  2.2033e-02|  -11.783519|   -6.275463|    0.309709|    0.003855|
|         116|  2.2019e-02|  -11.837223|   -6.330079|    0.309709|    0.003855|
|         117|  2.1995e-02|  -11.889390|   -6.383359|    0.309709|    0.003855|
|         118|  2.1982e-02|  -11.952777|   -6.445989|    0.309709|    0.003855|
|         119|  2.1969e-02|  -12.028640|   -6.519601|    0.309709|    0.003855|
|         120|  2.1955e-02|  -12.106696|   -6.595943|    0.309709|    0.003855|
|         121|  2.1940e-02|  -12.171971|   -6.663100|    0.309709|    0.003855|
|         122|  2.1925e-02|  -12.226035|   -6.719762|    0.309709|    0.003855|
|         123|  2.1913e-02|  -12.282201|   -6.776465|    0.309709|    0.003855|
|         124|  2.1900e-02|  -12.348301|   -6.839565|    0.309709|    0.003855|
|         125|  2.1888e-02|  -12.417713|   -6.903805|    0.309709|    0.003855|
|         126|  2.1882e-02|  -12.479699|   -6.963110|    0.309709|    0.003855|
|         127|  2.1863e-02|  -12.533852|   -7.015631|    0.309709|    0.003855|
|         128|  2.1848e-02|  -12.584837|   -7.068052|    0.309709|    0.003855|
|         129|  2.1834e-02|  -12.649669|   -7.131679|    0.309709|    0.003855|
|         130|  2.1822e-02|  -12.721361|   -7.202373|    0.309709|    0.003855|
|         131|  2.1820e-02|  -12.788255|   -7.268557|    0.309709|    0.003855|
|         132|  2.1809e-02|  -12.852158|   -7.334263|    0.309709|    0.003855|
|         133|  2.1798e-02|  -12.901872|   -7.388830|    0.309709|    0.003855|
|         134|  2.1787e-02|  -12.956758|   -7.444653|    0.309709|    0.003855|
|         135|  2.1789e-02|  -13.009919|   -7.494478|    0.309709|    0.003855|
|         136|  2.1784e-02|  -13.062778|   -7.535730|    0.309709|    0.003855|
|         137|  2.1773e-02|  -13.105052|   -7.583779|    0.309709|    0.003855|
|         138|  2.1763e-02|  -13.146796|   -7.631098|    0.309709|    0.003855|
|         139|  2.1752e-02|  -13.175675|   -7.659946|    0.309709|    0.003855|
|         140|  2.1742e-02|  -13.223510|   -7.698853|    0.309709|    0.003855|
|         141|  2.1725e-02|  -13.249866|   -7.733310|    0.309709|    0.003855|
|         142|  2.1716e-02|  -13.269264|   -7.738453|    0.309709|    0.003855|
|         143|  2.1698e-02|  -13.267113|   -7.760900|    0.309709|    0.003855|
|         144|  2.1683e-02|  -13.342420|   -7.809643|    0.309709|    0.003855|
|         145|  2.1674e-02|  -13.340121|   -7.825655|    0.309709|    0.003855|
|         146|  2.1664e-02|  -13.363678|   -7.864138|    0.309709|    0.003855|
|         147|  2.1650e-02|  -13.345127|   -7.842720|    0.309709|    0.003855|
|         148|  2.1636e-02|  -13.367667|   -7.866721|    0.309709|    0.003855|
|         149|  2.1627e-02|  -13.323644|   -7.823002|    0.309709|    0.003855|
|         150|  2.1610e-02|  -13.365500|   -7.868046|    0.309709|    0.003855|
|         151|  2.1593e-02|  -13.374733|   -7.864974|    0.309709|    0.003855|
|         152|  2.1583e-02|  -13.371642|   -7.833142|    0.309709|    0.003855|
|         153|  2.1570e-02|  -13.364988|   -7.859608|    0.309709|    0.003855|
|         154|  2.1550e-02|  -13.345814|   -7.838507|    0.309709|    0.003855|
|         155|  2.1541e-02|  -13.386781|   -7.870863|    0.309709|    0.003855|
|         156|  2.1525e-02|  -13.396578|   -7.879198|    0.309709|    0.003855|
|         157|  2.1513e-02|  -13.417619|   -7.905853|    0.309709|    0.003855|
|         158|  2.1493e-02|  -13.403089|   -7.907619|    0.309709|    0.003855|
|         159|  2.1475e-02|  -13.330687|   -7.834384|    0.309709|    0.003855|
|         160|  2.1457e-02|  -13.420002|   -7.884209|    0.309709|    0.003855|
|         161|  2.1443e-02|  -13.386338|   -7.863282|    0.309709|    0.003855|
|         162|  2.1418e-02|  -13.389215|   -7.861992|    0.309709|    0.003855|
|         163|  2.1404e-02|  -13.398073|   -7.893577|    0.309709|    0.003855|
|         164|  2.1386e-02|  -13.358464|   -7.844756|    0.309709|    0.003855|
|         165|  2.1368e-02|  -13.389861|   -7.884133|    0.309709|    0.003855|
|         166|  2.1352e-02|  -13.371951|   -7.861543|    0.309709|    0.003855|
|         167|  2.1335e-02|  -13.400624|   -7.900409|    0.309709|    0.003855|
|         168|  2.1317e-02|  -13.401685|   -7.881054|    0.309709|    0.003855|
|         169|  2.1294e-02|  -13.374618|   -7.861452|    0.309709|    0.003855|
|         170|  2.1277e-02|  -13.389329|   -7.873637|    0.309709|    0.003855|
|         171|  2.1260e-02|  -13.373347|   -7.856249|    0.309709|    0.003855|
|         172|  2.1238e-02|  -13.342960|   -7.819530|    0.309709|    0.003855|
|         173|  2.1228e-02|  -13.370397|   -7.866152|    0.309709|    0.003855|
|         174|  2.1219e-02|  -13.354580|   -7.833864|    0.309709|    0.003855|
|         175|  2.1205e-02|  -13.396575|   -7.868688|    0.309709|    0.003855|
|         176|  2.1189e-02|  -13.400940|   -7.898377|    0.309709|    0.003855|
|         177|  2.1178e-02|  -13.377295|   -7.856961|    0.309709|    0.003855|
|         178|  2.1163e-02|  -13.355582|   -7.859883|    0.309709|    0.003855|
|         179|  2.1143e-02|  -13.378627|   -7.862730|    0.309709|    0.003855|
|         180|  2.1129e-02|  -13.347487|   -7.834761|    0.309709|    0.003855|
|         181|  2.1119e-02|  -13.399380|   -7.882316|    0.309709|    0.003855|
|         182|  2.1108e-02|  -13.391093|   -7.860661|    0.309709|    0.003855|
|         183|  2.1095e-02|  -13.390071|   -7.885046|    0.309709|    0.003855|
|         184|  2.1086e-02|  -13.377699|   -7.867060|    0.309709|    0.003855|
|         185|  2.1076e-02|  -13.352562|   -7.858343|    0.309709|    0.003855|
|         186|  2.1066e-02|  -13.400992|   -7.885410|    0.309709|    0.003855|
|         187|  2.1062e-02|  -13.383673|   -7.872918|    0.309709|    0.003855|
[...]
|          46|  1.9941e-02|  -11.868853|   -6.407720|    0.294057|    0.098595|
|          47|  1.9909e-02|  -11.923742|   -6.462079|    0.294057|    0.098595|
|          48|  1.9854e-02|  -11.978242|   -6.516574|    0.294057|    0.098595|
|          49|  1.9818e-02|  -12.032071|   -6.569676|    0.294057|    0.098595|
|          50|  1.9795e-02|  -12.085304|   -6.623007|    0.294057|    0.098595|
|          51|  1.9773e-02|  -12.139641|   -6.677000|    0.294057|    0.098595|
|          52|  1.9746e-02|  -12.192722|   -6.729499|    0.294057|    0.098595|
|          53|  1.9717e-02|  -12.246191|   -6.782669|    0.294057|    0.098595|
|          54|  1.9694e-02|  -12.300188|   -6.836223|    0.294057|    0.098595|
|          55|  1.9666e-02|  -12.351431|   -6.887715|    0.294057|    0.098595|
|          56|  1.9643e-02|  -12.401056|   -6.936859|    0.294057|    0.098595|
|          57|  1.9620e-02|  -12.452627|   -6.986771|    0.294057|    0.098595|
|          58|  1.9596e-02|  -12.505542|   -7.041065|    0.294057|    0.098595|
|          59|  1.9565e-02|  -12.559465|   -7.094256|    0.294057|    0.098595|
|          60|  1.9545e-02|  -12.607937|   -7.140694|    0.294057|    0.098595|
|          61|  1.9527e-02|  -12.657658|   -7.190439|    0.294057|    0.098595|
|          62|  1.9492e-02|  -12.710955|   -7.241294|    0.294057|    0.098595|
|          63|  1.9472e-02|  -12.757883|   -7.291265|    0.294057|    0.098595|
|          64|  1.9453e-02|  -12.806089|   -7.331595|    0.294057|    0.098595|
|          65|  1.9436e-02|  -12.853235|   -7.378085|    0.294057|    0.098595|
|          66|  1.9416e-02|  -12.903005|   -7.425639|    0.294057|    0.098595|
|          67|  1.9393e-02|  -12.951134|   -7.473303|    0.294057|    0.098595|
|          68|  1.9379e-02|  -12.987672|   -7.505360|    0.294057|    0.098595|
|          69|  1.9364e-02|  -13.036353|   -7.548015|    0.294057|    0.098595|
|          70|  1.9352e-02|  -13.078416|   -7.580706|    0.294057|    0.098595|
|          71|  1.9339e-02|  -13.116299|   -7.627555|    0.294057|    0.098595|
|          72|  1.9311e-02|  -13.153136|   -7.644981|    0.294057|    0.098595|
|          73|  1.9304e-02|  -13.179155|   -7.673555|    0.294057|    0.098595|
|          74|  1.9302e-02|  -13.211007|   -7.713112|    0.294057|    0.098595|
|          75|  1.9275e-02|  -13.252171|   -7.733903|    0.294057|    0.098595|
|          76|  1.9259e-02|  -13.277523|   -7.746864|    0.294057|    0.098595|
|          77|  1.9249e-02|  -13.290713|   -7.770433|    0.294057|    0.098595|
|          78|  1.9224e-02|  -13.316513|   -7.776901|    0.294057|    0.098595|
|          79|  1.9200e-02|  -13.319104|   -7.788605|    0.294057|    0.098595|
|          80|  1.9193e-02|  -13.354086|   -7.821226|    0.294057|    0.098595|
|          81|  1.9181e-02|  -13.341150|   -7.789329|    0.294057|    0.098595|
|          82|  1.9170e-02|  -13.388949|   -7.833817|    0.294057|    0.098595|
|          83|  1.9147e-02|  -13.366408|   -7.815758|    0.294057|    0.098595|
|          84|  1.9125e-02|  -13.381028|   -7.833931|    0.294057|    0.098595|
|          85|  1.9101e-02|  -13.396064|   -7.842910|    0.294057|    0.098595|
|          86|  1.9091e-02|  -13.381776|   -7.830848|    0.294057|    0.098595|
|          87|  1.9073e-02|  -13.404525|   -7.830623|    0.294057|    0.098595|
|          88|  1.9068e-02|  -13.390729|   -7.828092|    0.294057|    0.098595|
|          89|  1.9046e-02|  -13.416199|   -7.854731|    0.294057|    0.098595|
|          90|  1.9026e-02|  -13.423214|   -7.847583|    0.294057|    0.098595|
|          91|  1.9018e-02|  -13.391397|   -7.824856|    0.294057|    0.098595|
|          92|  1.8998e-02|  -13.407865|   -7.841296|    0.294057|    0.098595|
|          93|  1.8977e-02|  -13.402455|   -7.837230|    0.294057|    0.098595|
|          94|  1.8949e-02|  -13.380180|   -7.800533|    0.294057|    0.098595|
|          95|  1.8931e-02|  -13.425847|   -7.858136|    0.294057|    0.098595|
|          96|  1.8927e-02|  -13.406110|   -7.849870|    0.294057|    0.098595|
|          97|  1.8913e-02|  -13.431907|   -7.856681|    0.294057|    0.098595|
|          98|  1.8895e-02|  -13.435780|   -7.872841|    0.294057|    0.098595|
|          99|  1.8891e-02|  -13.424766|   -7.826960|    0.294057|    0.098595|
|         100|  1.8865e-02|  -13.419546|   -7.811576|    0.294057|    0.098595|
|         101|  1.8842e-02|  -13.419090|   -7.845222|    0.294057|    0.098595|
|         102|  1.8828e-02|  -13.401961|   -7.833583|    0.294057|    0.098595|
|         103|  1.8816e-02|  -13.433016|   -7.849313|    0.294057|    0.098595|
|         104|  1.8799e-02|  -13.435755|   -7.858735|    0.294057|    0.098595|
|         105|  1.8786e-02|  -13.421013|   -7.855289|    0.294057|    0.098595|
|         106|  1.8771e-02|  -13.422165|   -7.846705|    0.294057|    0.098595|
|         107|  1.8756e-02|  -13.383917|   -7.805038|    0.294057|    0.098595|
|         108|  1.8740e-02|  -13.411513|   -7.853409|    0.294057|    0.098595|
+-----------------------------------------------------------------------------+
|                              Zone 1 (Structure)                             |
+-----------------------------------------------------------------------------+
|  Outer_Iter|  Inner_Iter|      rms[U]|      rms[R]|      rms[E]|    VonMises|
+-----------------------------------------------------------------------------+
|          49|           0|   -4.836847|    1.491072|   -4.156677|  4.4725e+06|
|          49|           1|   -4.027248|    1.034476|   -3.856313|  4.4765e+06|
|          49|           2|   -4.059220|    1.634543|   -3.687730|  4.4721e+06|
|          49|           3|   -4.767967|    1.500892|   -3.943283|  4.4738e+06|
|          49|           4|   -4.198466|    0.964323|   -4.023311|  4.4742e+06|
+----------------------------------------------------------------+
|                        Multizone Summary                       |
+----------------------------------------------------------------+
|  Outer_Iter| avg[bgs][0]| avg[bgs][1]|MinVolume[0]|DeformIter[0|
+----------------------------------------------------------------+
|          49|   -3.645114|   -6.517619|  1.3803e-09|          31|

----------------------------- Solver Exit -------------------------------

Maximum number of iterations reached (OUTER_ITER = 50) before convergence.
+-----------------------------------------------------------------------+
|      Convergence Field     |     Value    |   Criterion  |  Converged |
+-----------------------------------------------------------------------+
|                 avg[bgs][0]|      -3.64511|          < -9|          No|
|                 avg[bgs][1]|      -6.51762|          < -9|          No|
+-----------------------------------------------------------------------+
-------------------------------------------------------------------------
+-----------------------------------------------------------------------+
|        File Writing Summary       |              Filename             |
+-----------------------------------------------------------------------+
|SU2 restart                        |fsisteady_res_0.dat                |
|SU2 ASCII restart                  |fsisteady_res_0.csv                |
|Paraview                           |fsisteadyvol_0.vtu                 |
|Paraview surface                   |surface_flow_0.vtu                 |
|CSV file                           |surface_flow_0.csv                 |
+-----------------------------------------------------------------------+
+-----------------------------------------------------------------------+
|        File Writing Summary       |              Filename             |
+-----------------------------------------------------------------------+
|SU2 restart                        |fsisteady_res_1.dat                |
|SU2 ASCII restart                  |fsisteady_res_1.csv                |
|Paraview                           |fsisteadyvol_1.vtu                 |
+-----------------------------------------------------------------------+

------------------------- Solver Postprocessing -------------------------
Deleted CNumerics container.
Deleted CIntegration container.
Deleted CSolver container.
Deleted CIteration container.
Deleted CInterface container.
Deleted CGeometry container.
Deleted CFreeFormDefBox class.
Deleted CSurfaceMovement class.
Deleted CVolumetricMovement class.
Deleted CConfig container.
Deleted nInst container.
Deleted COutput class.
-------------------------------------------------------------------------

------------------------- Exit Success (SU2_CFD) ------------------------

# mpiexec: finished at Fri  5 Mar 03:06:20 GMT 2021
# mpiexec: MPI is /apps/mpi/intel/2019.6.166
# mpiexec: No RDMA network found -- using sockets+shared memory
# mpiexec: bootstrapping with /apps/mpi/intel/2019.6.166/bin/__pbs_tmrsh
# mpiexec: full path to program is /rds/general/user/ia2017/home/SU2full/bin/SU2_SOL
# mpiexec: program arguments are: config_SOL.cfg
# mpiexec: 32 ranks allocated via PBS select
# mpiexec: 1 OpenMP threads / rank allocated by PBS select
# mpiexec: Job has shared use of the allocated nodes. Disabling process-pinning
# mpiexec: machinefile configured as:
cx3-4-20.cx3.hpc.ic.ac.uk:32
#
# mpiexec: Checking all nodes are ONLINE:
# mpiexec: All nodes appear ONLINE
# mpiexec: launch started at Fri  5 Mar 03:06:20 GMT 2021
# mpiexec: launching program...
# /rds/general/user/ia2017/home/SU2full/bin/SU2_SOL config_SOL.cfg
(cx3-4-20.cx3.hpc.ic.ac.uk:0,1,2,3,4,5,6,7,8,9,10,11,12,13,14,15,16,17,18,19,20,21,22,23,24,25,26,27,28,29,30,31)


-------------------------------------------------------------------------
|    ___ _   _ ___                                                      |
|   / __| | | |_  )   Release 7.1.0 "Blackbird"                         |
|   \__ \ |_| |/ /                                                      |
|   |___/\___//___|   Suite (Solution Exporting Code)                   |
|                                                                       |
-------------------------------------------------------------------------
| SU2 Project Website: https://su2code.github.io                        |
|                                                                       |
| The SU2 Project is maintained by the SU2 Foundation                   |
| (http://su2foundation.org)                                            |
-------------------------------------------------------------------------
| Copyright 2012-2020, SU2 Contributors                                 |
|                                                                       |
| SU2 is free software; you can redistribute it and/or                  |
| modify it under the terms of the GNU Lesser General Public            |
| License as published by the Free Software Foundation; either          |
| version 2.1 of the License, or (at your option) any later version.    |
|                                                                       |
| SU2 is distributed in the hope that it will be useful,                |
| but WITHOUT ANY WARRANTY; without even the implied warranty of        |
| MERCHANTABILITY or FITNESS FOR A PARTICULAR PURPOSE. See the GNU      |
| Lesser General Public License for more details.                       |
|                                                                       |
| You should have received a copy of the GNU Lesser General Public      |
| License along with SU2. If not, see <http://www.gnu.org/licenses/>.   |
-------------------------------------------------------------------------

----------------- Physical Case Definition ( Zone 0 ) -------------------
Input mesh file name: NACA2412_3D_unmatched2.su2

-------------------- Output Information ( Zone 0 ) ----------------------
The tabular file format is CSV (.csv).
Flow variables file name: fsisteadyvol.

------------- Config File Boundary Information ( Zone 0 ) ---------------
+-----------------------------------------------------------------------+
|                        Marker Type|                        Marker Name|
+-----------------------------------------------------------------------+
|                         Euler wall|                          flowbound|
+-----------------------------------------------------------------------+
|                          Far-field|                           farfield|
+-----------------------------------------------------------------------+
|                     Symmetry plane|                           symmetry|
+-----------------------------------------------------------------------+
|           Deformable mesh boundary|                          flowbound|
+-----------------------------------------------------------------------+
|               Fluid loads boundary|                           feabound|
+-----------------------------------------------------------------------+
|                   Clamped boundary|                            clamped|
+-----------------------------------------------------------------------+

----------------- Physical Case Definition ( Zone 1 ) -------------------
Input mesh file name: NACA2412_3D_unmatched2.su2

-------------------- Output Information ( Zone 1 ) ----------------------
The tabular file format is CSV (.csv).
Flow variables file name: fsisteadyvol.

------------- Config File Boundary Information ( Zone 1 ) ---------------
+-----------------------------------------------------------------------+
|                        Marker Type|                        Marker Name|
+-----------------------------------------------------------------------+
|                         Euler wall|                          flowbound|
|                                   |                           feabound|
+-----------------------------------------------------------------------+
|                          Far-field|                           farfield|
+-----------------------------------------------------------------------+
|                     Symmetry plane|                           symmetry|
+-----------------------------------------------------------------------+
|               Fluid loads boundary|                           feabound|
+-----------------------------------------------------------------------+
|                   Clamped boundary|                            clamped|
+-----------------------------------------------------------------------+
Reading zone 0 from native SU2 ASCII mesh.
Three dimensional problem.
12543 grid points before partitioning.
53798 volume elements before partitioning.
3 surface markers.
426 boundary elements in index 0 (Marker = farfield).
1296 boundary elements in index 1 (Marker = symmetry).
12948 boundary elements in index 2 (Marker = flowbound).
Executing the partitioning functions.
Building the graph adjacency structure.
Calling ParMETIS... graph partitioning complete (9846 edge cuts).
Distributing ParMETIS coloring.
Rebalancing vertices.
Rebalancing volume element connectivity.
Rebalancing markers and surface elements.
19090 vertices including ghost points. 
68246 interior elements including halo cells. 
68246 tetrahedra.
Establishing MPI communication patterns.
Identify vertices.
Storing a mapping from global to local point index.
Reading zone 1 from native SU2 ASCII mesh.
Three dimensional problem.
3521 grid points before partitioning.
11494 volume elements before partitioning.
2 surface markers.
6184 boundary elements in index 0 (Marker = feabound).
127 boundary elements in index 1 (Marker = clamped).
Executing the partitioning functions.
Building the graph adjacency structure.
Calling ParMETIS... graph partitioning complete (2607 edge cuts).
Distributing ParMETIS coloring.
Rebalancing vertices.
Rebalancing volume element connectivity.
Rebalancing markers and surface elements.
5419 vertices including ghost points. 
14543 interior elements including halo cells. 
14543 tetrahedra.
Establishing MPI communication patterns.
Identify vertices.
Storing a mapping from global to local point index.

------------------------- Solution Postprocessing -----------------------


Error in "void CBaselineSolver::SetOutputVariables(CGeometry*, CConfig*)": 
-------------------------------------------------------------------------
Unable to open SU2 restart file fsisteady_0.dat
------------------------------ Error Exit -------------------------------


# mpiexec: finished at Fri  5 Mar 03:06:23 GMT 2021
Abort(1) on node 1 (rank 1 in comm 0): application called MPI_Abort(MPI_COMM_WORLD, 1) - process 1
Abort(1) on node 2 (rank 2 in comm 0): application called MPI_Abort(MPI_COMM_WORLD, 1) - process 2
Abort(1) on node 3 (rank 3 in comm 0): application called MPI_Abort(MPI_COMM_WORLD, 1) - process 3
Abort(1) on node 4 (rank 4 in comm 0): application called MPI_Abort(MPI_COMM_WORLD, 1) - process 4
Abort(1) on node 5 (rank 5 in comm 0): application called MPI_Abort(MPI_COMM_WORLD, 1) - process 5
Abort(1) on node 6 (rank 6 in comm 0): application called MPI_Abort(MPI_COMM_WORLD, 1) - process 6
Abort(1) on node 7 (rank 7 in comm 0): application called MPI_Abort(MPI_COMM_WORLD, 1) - process 7
Abort(1) on node 9 (rank 9 in comm 0): application called MPI_Abort(MPI_COMM_WORLD, 1) - process 9
Abort(1) on node 10 (rank 10 in comm 0): application called MPI_Abort(MPI_COMM_WORLD, 1) - process 10
Abort(1) on node 11 (rank 11 in comm 0): application called MPI_Abort(MPI_COMM_WORLD, 1) - process 11
Abort(1) on node 12 (rank 12 in comm 0): application called MPI_Abort(MPI_COMM_WORLD, 1) - process 12
Abort(1) on node 13 (rank 13 in comm 0): application called MPI_Abort(MPI_COMM_WORLD, 1) - process 13
Abort(1) on node 14 (rank 14 in comm 0): application called MPI_Abort(MPI_COMM_WORLD, 1) - process 14
Abort(1) on node 15 (rank 15 in comm 0): application called MPI_Abort(MPI_COMM_WORLD, 1) - process 15
Abort(1) on node 16 (rank 16 in comm 0): application called MPI_Abort(MPI_COMM_WORLD, 1) - process 16
Abort(1) on node 17 (rank 17 in comm 0): application called MPI_Abort(MPI_COMM_WORLD, 1) - process 17
Abort(1) on node 18 (rank 18 in comm 0): application called MPI_Abort(MPI_COMM_WORLD, 1) - process 18
Abort(1) on node 19 (rank 19 in comm 0): application called MPI_Abort(MPI_COMM_WORLD, 1) - process 19
Abort(1) on node 20 (rank 20 in comm 0): application called MPI_Abort(MPI_COMM_WORLD, 1) - process 20
Abort(1) on node 21 (rank 21 in comm 0): application called MPI_Abort(MPI_COMM_WORLD, 1) - process 21
Abort(1) on node 22 (rank 22 in comm 0): application called MPI_Abort(MPI_COMM_WORLD, 1) - process 22
Abort(1) on node 23 (rank 23 in comm 0): application called MPI_Abort(MPI_COMM_WORLD, 1) - process 23
Abort(1) on node 24 (rank 24 in comm 0): application called MPI_Abort(MPI_COMM_WORLD, 1) - process 24
Abort(1) on node 25 (rank 25 in comm 0): application called MPI_Abort(MPI_COMM_WORLD, 1) - process 25
Abort(1) on node 26 (rank 26 in comm 0): application called MPI_Abort(MPI_COMM_WORLD, 1) - process 26
Abort(1) on node 27 (rank 27 in comm 0): application called MPI_Abort(MPI_COMM_WORLD, 1) - process 27
Abort(1) on node 28 (rank 28 in comm 0): application called MPI_Abort(MPI_COMM_WORLD, 1) - process 28
Abort(1) on node 29 (rank 29 in comm 0): application called MPI_Abort(MPI_COMM_WORLD, 1) - process 29
Abort(1) on node 30 (rank 30 in comm 0): application called MPI_Abort(MPI_COMM_WORLD, 1) - process 30
Abort(1) on node 31 (rank 31 in comm 0): application called MPI_Abort(MPI_COMM_WORLD, 1) - process 31
Abort(1) on node 0 (rank 0 in comm 0): application called MPI_Abort(MPI_COMM_WORLD, 1) - process 0
Abort(1) on node 8 (rank 8 in comm 0): application called MPI_Abort(MPI_COMM_WORLD, 1) - process 8

============================================

        Job resource usage summary 

                 Memory (GB)    NCPUs
 Requested  :       100            32
 Used       :         1 (peak)  27.92 (ave)

============================================
