
-------------------------------------------------------------------------
|    ___ _   _ ___                                                      |
|   / __| | | |_  )   Release 7.1.0 "Blackbird"                         |
|   \__ \ |_| |/ /                                                      |
|   |___/\___//___|   Aerodynamic Shape Optimization Script             |
|                                                                       |
-------------------------------------------------------------------------
| SU2 Project Website: https://su2code.github.io                        |
|                                                                       |
| The SU2 Project is maintained by the SU2 Foundation                   |
| (http://su2foundation.org)                                            |
-------------------------------------------------------------------------
| Copyright 2012-2020, SU2 Contributors (cf. AUTHORS.md)                |
|                                                                       |
| SU2 is free software; you can redistribute it and/or                  |
| modify it under the terms of the GNU Lesser General Public            |
| License as published by the Free Software Foundation; either          |
| version 2.1 of the License, or (at your option) any later version.    |
|                                                                       |
| SU2 is distributed in the hope that it will be useful,                |
| but WITHOUT ANY WARRANTY; without even the implied warranty of        |
| MERCHANTABILITY or FITNESS FOR A PARTICULAR PURPOSE. See the GNU      |
| Lesser General Public License for more details.                       |
|                                                                       |
| You should have received a copy of the GNU Lesser General Public      |
| License along with SU2. If not, see <http://www.gnu.org/licenses/>.   |
-------------------------------------------------------------------------
Found: NACA2412_3D_combined.su2
New Project: ./
Removing old designs in 10s. Done!

Sequential Least SQuares Programming (SLSQP) parameters:
Number of design variables: 198 ( 198 ) 
Objective function scaling factor: [1.0]
Maximum number of iterations: 30
Requested accuracy: 1e-16
Initial guess for the independent variable(s): [0.0, 0.0, 0.0, 0.0, 0.0, 0.0, 0.0, 0.0, 0.0, 0.0, 0.0, 0.0, 0.0, 0.0, 0.0, 0.0, 0.0, 0.0, 0.0, 0.0, 0.0, 0.0, 0.0, 0.0, 0.0, 0.0, 0.0, 0.0, 0.0, 0.0, 0.0, 0.0, 0.0, 0.0, 0.0, 0.0, 0.0, 0.0, 0.0, 0.0, 0.0, 0.0, 0.0, 0.0, 0.0, 0.0, 0.0, 0.0, 0.0, 0.0, 0.0, 0.0, 0.0, 0.0, 0.0, 0.0, 0.0, 0.0, 0.0, 0.0, 0.0, 0.0, 0.0, 0.0, 0.0, 0.0, 0.0, 0.0, 0.0, 0.0, 0.0, 0.0, 0.0, 0.0, 0.0, 0.0, 0.0, 0.0, 0.0, 0.0, 0.0, 0.0, 0.0, 0.0, 0.0, 0.0, 0.0, 0.0, 0.0, 0.0, 0.0, 0.0, 0.0, 0.0, 0.0, 0.0, 0.0, 0.0, 0.0, 0.0, 0.0, 0.0, 0.0, 0.0, 0.0, 0.0, 0.0, 0.0, 0.0, 0.0, 0.0, 0.0, 0.0, 0.0, 0.0, 0.0, 0.0, 0.0, 0.0, 0.0, 0.0, 0.0, 0.0, 0.0, 0.0, 0.0, 0.0, 0.0, 0.0, 0.0, 0.0, 0.0, 0.0, 0.0, 0.0, 0.0, 0.0, 0.0, 0.0, 0.0, 0.0, 0.0, 0.0, 0.0, 0.0, 0.0, 0.0, 0.0, 0.0, 0.0, 0.0, 0.0, 0.0, 0.0, 0.0, 0.0, 0.0, 0.0, 0.0, 0.0, 0.0, 0.0, 0.0, 0.0, 0.0, 0.0, 0.0, 0.0, 0.0, 0.0, 0.0, 0.0, 0.0, 0.0, 0.0, 0.0, 0.0, 0.0, 0.0, 0.0, 0.0, 0.0, 0.0, 0.0, 0.0, 0.0, 0.0, 0.0, 0.0, 0.0, 0.0, 0.0, 0.0, 0.0, 0.0, 0.0, 0.0, 0.0]
Lower and upper bound for each independent variable: [(-1000.0, 1000.0), (-1000.0, 1000.0), (-1000.0, 1000.0), (-1000.0, 1000.0), (-1000.0, 1000.0), (-1000.0, 1000.0), (-1000.0, 1000.0), (-1000.0, 1000.0), (-1000.0, 1000.0), (-1000.0, 1000.0), (-1000.0, 1000.0), (-1000.0, 1000.0), (-1000.0, 1000.0), (-1000.0, 1000.0), (-1000.0, 1000.0), (-1000.0, 1000.0), (-1000.0, 1000.0), (-1000.0, 1000.0), (-1000.0, 1000.0), (-1000.0, 1000.0), (-1000.0, 1000.0), (-1000.0, 1000.0), (-1000.0, 1000.0), (-1000.0, 1000.0), (-1000.0, 1000.0), (-1000.0, 1000.0), (-1000.0, 1000.0), (-1000.0, 1000.0), (-1000.0, 1000.0), (-1000.0, 1000.0), (-1000.0, 1000.0), (-1000.0, 1000.0), (-1000.0, 1000.0), (-1000.0, 1000.0), (-1000.0, 1000.0), (-1000.0, 1000.0), (-1000.0, 1000.0), (-1000.0, 1000.0), (-1000.0, 1000.0), (-1000.0, 1000.0), (-1000.0, 1000.0), (-1000.0, 1000.0), (-1000.0, 1000.0), (-1000.0, 1000.0), (-1000.0, 1000.0), (-1000.0, 1000.0), (-1000.0, 1000.0), (-1000.0, 1000.0), (-1000.0, 1000.0), (-1000.0, 1000.0), (-1000.0, 1000.0), (-1000.0, 1000.0), (-1000.0, 1000.0), (-1000.0, 1000.0), (-1000.0, 1000.0), (-1000.0, 1000.0), (-1000.0, 1000.0), (-1000.0, 1000.0), (-1000.0, 1000.0), (-1000.0, 1000.0), (-1000.0, 1000.0), (-1000.0, 1000.0), (-1000.0, 1000.0), (-1000.0, 1000.0), (-1000.0, 1000.0), (-1000.0, 1000.0), (-1000.0, 1000.0), (-1000.0, 1000.0), (-1000.0, 1000.0), (-1000.0, 1000.0), (-1000.0, 1000.0), (-1000.0, 1000.0), (-1000.0, 1000.0), (-1000.0, 1000.0), (-1000.0, 1000.0), (-1000.0, 1000.0), (-1000.0, 1000.0), (-1000.0, 1000.0), (-1000.0, 1000.0), (-1000.0, 1000.0), (-1000.0, 1000.0), (-1000.0, 1000.0), (-1000.0, 1000.0), (-1000.0, 1000.0), (-1000.0, 1000.0), (-1000.0, 1000.0), (-1000.0, 1000.0), (-1000.0, 1000.0), (-1000.0, 1000.0), (-1000.0, 1000.0), (-1000.0, 1000.0), (-1000.0, 1000.0), (-1000.0, 1000.0), (-1000.0, 1000.0), (-1000.0, 1000.0), (-1000.0, 1000.0), (-1000.0, 1000.0), (-1000.0, 1000.0), (-1000.0, 1000.0), (-1000.0, 1000.0), (-1000.0, 1000.0), (-1000.0, 1000.0), (-1000.0, 1000.0), (-1000.0, 1000.0), (-1000.0, 1000.0), (-1000.0, 1000.0), (-1000.0, 1000.0), (-1000.0, 1000.0), (-1000.0, 1000.0), (-1000.0, 1000.0), (-1000.0, 1000.0), (-1000.0, 1000.0), (-1000.0, 1000.0), (-1000.0, 1000.0), (-1000.0, 1000.0), (-1000.0, 1000.0), (-1000.0, 1000.0), (-1000.0, 1000.0), (-1000.0, 1000.0), (-1000.0, 1000.0), (-1000.0, 1000.0), (-1000.0, 1000.0), (-1000.0, 1000.0), (-1000.0, 1000.0), (-1000.0, 1000.0), (-1000.0, 1000.0), (-1000.0, 1000.0), (-1000.0, 1000.0), (-1000.0, 1000.0), (-1000.0, 1000.0), (-1000.0, 1000.0), (-1000.0, 1000.0), (-1000.0, 1000.0), (-1000.0, 1000.0), (-1000.0, 1000.0), (-1000.0, 1000.0), (-1000.0, 1000.0), (-1000.0, 1000.0), (-1000.0, 1000.0), (-1000.0, 1000.0), (-1000.0, 1000.0), (-1000.0, 1000.0), (-1000.0, 1000.0), (-1000.0, 1000.0), (-1000.0, 1000.0), (-1000.0, 1000.0), (-1000.0, 1000.0), (-1000.0, 1000.0), (-1000.0, 1000.0), (-1000.0, 1000.0), (-1000.0, 1000.0), (-1000.0, 1000.0), (-1000.0, 1000.0), (-1000.0, 1000.0), (-1000.0, 1000.0), (-1000.0, 1000.0), (-1000.0, 1000.0), (-1000.0, 1000.0), (-1000.0, 1000.0), (-1000.0, 1000.0), (-1000.0, 1000.0), (-1000.0, 1000.0), (-1000.0, 1000.0), (-1000.0, 1000.0), (-1000.0, 1000.0), (-1000.0, 1000.0), (-1000.0, 1000.0), (-1000.0, 1000.0), (-1000.0, 1000.0), (-1000.0, 1000.0), (-1000.0, 1000.0), (-1000.0, 1000.0), (-1000.0, 1000.0), (-1000.0, 1000.0), (-1000.0, 1000.0), (-1000.0, 1000.0), (-1000.0, 1000.0), (-1000.0, 1000.0), (-1000.0, 1000.0), (-1000.0, 1000.0), (-1000.0, 1000.0), (-1000.0, 1000.0), (-1000.0, 1000.0), (-1000.0, 1000.0), (-1000.0, 1000.0), (-1000.0, 1000.0), (-1000.0, 1000.0), (-1000.0, 1000.0), (-1000.0, 1000.0), (-1000.0, 1000.0), (-1000.0, 1000.0), (-1000.0, 1000.0), (-1000.0, 1000.0), (-1000.0, 1000.0), (-1000.0, 1000.0), (-1000.0, 1000.0), (-1000.0, 1000.0), (-1000.0, 1000.0)]

  NIT    FC           OBJFUN            GNORM
    1     2     9.197980E-09     1.651366E-07
    2     3     9.062434E-09     1.649193E-07
    3     4     8.402642E-09     1.638245E-07
    4     5     6.900911E-09     1.583719E-07
    5     6     6.898875E-09     1.453519E-07
    6     7     6.891486E-09     1.453378E-07
    7     8     6.854812E-09     1.452924E-07
    8     9     6.678033E-09     1.450689E-07
    9    10     5.947487E-09     1.439887E-07
   10    11     4.853972E-09     1.391561E-07
   11    12     4.873167E-09     1.297346E-07
   12    23     4.872294E-09     1.297346E-07
   13    34     4.858671E-09     1.297346E-07
   14    45     4.868051E-09     1.297346E-07
   15    56     4.636287E-09     1.297346E-07
   16    57     3.992843E-09     1.292337E-07
   17    58     3.887185E-09     1.282746E-07
   18    59     3.883675E-09     1.291174E-07
   19    60     3.868681E-09     1.291577E-07
   20    61     3.797629E-09     1.292469E-07
   21    62     3.590906E-09     1.294871E-07
   22    63     3.557262E-09     1.308502E-07
   23    64     3.557553E-09     1.321742E-07
   24    71     3.561083E-09     1.321742E-07
   25    73     3.553498E-09     1.320736E-07
   26    74     3.547757E-09     1.318053E-07
   27    75     3.526438E-09     1.315923E-07
   28    76     3.481060E-09     1.310573E-07
   29    77     3.358464E-09     1.306236E-07
   30    77     3.358464E-09     1.300349E-07
Iteration limit reached    (Exit mode 9)
            Current function value: 3.358464368e-09
            Iterations: 30
            Function evaluations: 77
            Gradient evaluations: 30

============================================

        Job resource usage summary 

                 Memory (GB)    NCPUs
 Requested  :       100            32
 Used       :         2 (peak)  31.87 (ave)

============================================
