
-------------------------------------------------------------------------
|    ___ _   _ ___                                                      |
|   / __| | | |_  )   Release 7.1.0 "Blackbird"                         |
|   \__ \ |_| |/ /                                                      |
|   |___/\___//___|   Aerodynamic Shape Optimization Script             |
|                                                                       |
-------------------------------------------------------------------------
| SU2 Project Website: https://su2code.github.io                        |
|                                                                       |
| The SU2 Project is maintained by the SU2 Foundation                   |
| (http://su2foundation.org)                                            |
-------------------------------------------------------------------------
| Copyright 2012-2020, SU2 Contributors (cf. AUTHORS.md)                |
|                                                                       |
| SU2 is free software; you can redistribute it and/or                  |
| modify it under the terms of the GNU Lesser General Public            |
| License as published by the Free Software Foundation; either          |
| version 2.1 of the License, or (at your option) any later version.    |
|                                                                       |
| SU2 is distributed in the hope that it will be useful,                |
| but WITHOUT ANY WARRANTY; without even the implied warranty of        |
| MERCHANTABILITY or FITNESS FOR A PARTICULAR PURPOSE. See the GNU      |
| Lesser General Public License for more details.                       |
|                                                                       |
| You should have received a copy of the GNU Lesser General Public      |
| License along with SU2. If not, see <http://www.gnu.org/licenses/>.   |
-------------------------------------------------------------------------
Found: NACA2412_3D_combined.su2
New Project: ./
Sequential Least SQuares Programming (SLSQP) parameters:
Number of design variables: 198 ( 198 ) 
Objective function scaling factor: [1.0]
Maximum number of iterations: 30
Requested accuracy: 1e-16
Initial guess for the independent variable(s): [0.0, 0.0, 0.0, 0.0, 0.0, 0.0, 0.0, 0.0, 0.0, 0.0, 0.0, 0.0, 0.0, 0.0, 0.0, 0.0, 0.0, 0.0, 0.0, 0.0, 0.0, 0.0, 0.0, 0.0, 0.0, 0.0, 0.0, 0.0, 0.0, 0.0, 0.0, 0.0, 0.0, 0.0, 0.0, 0.0, 0.0, 0.0, 0.0, 0.0, 0.0, 0.0, 0.0, 0.0, 0.0, 0.0, 0.0, 0.0, 0.0, 0.0, 0.0, 0.0, 0.0, 0.0, 0.0, 0.0, 0.0, 0.0, 0.0, 0.0, 0.0, 0.0, 0.0, 0.0, 0.0, 0.0, 0.0, 0.0, 0.0, 0.0, 0.0, 0.0, 0.0, 0.0, 0.0, 0.0, 0.0, 0.0, 0.0, 0.0, 0.0, 0.0, 0.0, 0.0, 0.0, 0.0, 0.0, 0.0, 0.0, 0.0, 0.0, 0.0, 0.0, 0.0, 0.0, 0.0, 0.0, 0.0, 0.0, 0.0, 0.0, 0.0, 0.0, 0.0, 0.0, 0.0, 0.0, 0.0, 0.0, 0.0, 0.0, 0.0, 0.0, 0.0, 0.0, 0.0, 0.0, 0.0, 0.0, 0.0, 0.0, 0.0, 0.0, 0.0, 0.0, 0.0, 0.0, 0.0, 0.0, 0.0, 0.0, 0.0, 0.0, 0.0, 0.0, 0.0, 0.0, 0.0, 0.0, 0.0, 0.0, 0.0, 0.0, 0.0, 0.0, 0.0, 0.0, 0.0, 0.0, 0.0, 0.0, 0.0, 0.0, 0.0, 0.0, 0.0, 0.0, 0.0, 0.0, 0.0, 0.0, 0.0, 0.0, 0.0, 0.0, 0.0, 0.0, 0.0, 0.0, 0.0, 0.0, 0.0, 0.0, 0.0, 0.0, 0.0, 0.0, 0.0, 0.0, 0.0, 0.0, 0.0, 0.0, 0.0, 0.0, 0.0, 0.0, 0.0, 0.0, 0.0, 0.0, 0.0, 0.0, 0.0, 0.0, 0.0, 0.0, 0.0]
Lower and upper bound for each independent variable: [(-100.0, 100.0), (-100.0, 100.0), (-100.0, 100.0), (-100.0, 100.0), (-100.0, 100.0), (-100.0, 100.0), (-100.0, 100.0), (-100.0, 100.0), (-100.0, 100.0), (-100.0, 100.0), (-100.0, 100.0), (-100.0, 100.0), (-100.0, 100.0), (-100.0, 100.0), (-100.0, 100.0), (-100.0, 100.0), (-100.0, 100.0), (-100.0, 100.0), (-100.0, 100.0), (-100.0, 100.0), (-100.0, 100.0), (-100.0, 100.0), (-100.0, 100.0), (-100.0, 100.0), (-100.0, 100.0), (-100.0, 100.0), (-100.0, 100.0), (-100.0, 100.0), (-100.0, 100.0), (-100.0, 100.0), (-100.0, 100.0), (-100.0, 100.0), (-100.0, 100.0), (-100.0, 100.0), (-100.0, 100.0), (-100.0, 100.0), (-100.0, 100.0), (-100.0, 100.0), (-100.0, 100.0), (-100.0, 100.0), (-100.0, 100.0), (-100.0, 100.0), (-100.0, 100.0), (-100.0, 100.0), (-100.0, 100.0), (-100.0, 100.0), (-100.0, 100.0), (-100.0, 100.0), (-100.0, 100.0), (-100.0, 100.0), (-100.0, 100.0), (-100.0, 100.0), (-100.0, 100.0), (-100.0, 100.0), (-100.0, 100.0), (-100.0, 100.0), (-100.0, 100.0), (-100.0, 100.0), (-100.0, 100.0), (-100.0, 100.0), (-100.0, 100.0), (-100.0, 100.0), (-100.0, 100.0), (-100.0, 100.0), (-100.0, 100.0), (-100.0, 100.0), (-100.0, 100.0), (-100.0, 100.0), (-100.0, 100.0), (-100.0, 100.0), (-100.0, 100.0), (-100.0, 100.0), (-100.0, 100.0), (-100.0, 100.0), (-100.0, 100.0), (-100.0, 100.0), (-100.0, 100.0), (-100.0, 100.0), (-100.0, 100.0), (-100.0, 100.0), (-100.0, 100.0), (-100.0, 100.0), (-100.0, 100.0), (-100.0, 100.0), (-100.0, 100.0), (-100.0, 100.0), (-100.0, 100.0), (-100.0, 100.0), (-100.0, 100.0), (-100.0, 100.0), (-100.0, 100.0), (-100.0, 100.0), (-100.0, 100.0), (-100.0, 100.0), (-100.0, 100.0), (-100.0, 100.0), (-100.0, 100.0), (-100.0, 100.0), (-100.0, 100.0), (-100.0, 100.0), (-100.0, 100.0), (-100.0, 100.0), (-100.0, 100.0), (-100.0, 100.0), (-100.0, 100.0), (-100.0, 100.0), (-100.0, 100.0), (-100.0, 100.0), (-100.0, 100.0), (-100.0, 100.0), (-100.0, 100.0), (-100.0, 100.0), (-100.0, 100.0), (-100.0, 100.0), (-100.0, 100.0), (-100.0, 100.0), (-100.0, 100.0), (-100.0, 100.0), (-100.0, 100.0), (-100.0, 100.0), (-100.0, 100.0), (-100.0, 100.0), (-100.0, 100.0), (-100.0, 100.0), (-100.0, 100.0), (-100.0, 100.0), (-100.0, 100.0), (-100.0, 100.0), (-100.0, 100.0), (-100.0, 100.0), (-100.0, 100.0), (-100.0, 100.0), (-100.0, 100.0), (-100.0, 100.0), (-100.0, 100.0), (-100.0, 100.0), (-100.0, 100.0), (-100.0, 100.0), (-100.0, 100.0), (-100.0, 100.0), (-100.0, 100.0), (-100.0, 100.0), (-100.0, 100.0), (-100.0, 100.0), (-100.0, 100.0), (-100.0, 100.0), (-100.0, 100.0), (-100.0, 100.0), (-100.0, 100.0), (-100.0, 100.0), (-100.0, 100.0), (-100.0, 100.0), (-100.0, 100.0), (-100.0, 100.0), (-100.0, 100.0), (-100.0, 100.0), (-100.0, 100.0), (-100.0, 100.0), (-100.0, 100.0), (-100.0, 100.0), (-100.0, 100.0), (-100.0, 100.0), (-100.0, 100.0), (-100.0, 100.0), (-100.0, 100.0), (-100.0, 100.0), (-100.0, 100.0), (-100.0, 100.0), (-100.0, 100.0), (-100.0, 100.0), (-100.0, 100.0), (-100.0, 100.0), (-100.0, 100.0), (-100.0, 100.0), (-100.0, 100.0), (-100.0, 100.0), (-100.0, 100.0), (-100.0, 100.0), (-100.0, 100.0), (-100.0, 100.0), (-100.0, 100.0), (-100.0, 100.0), (-100.0, 100.0), (-100.0, 100.0), (-100.0, 100.0), (-100.0, 100.0), (-100.0, 100.0), (-100.0, 100.0), (-100.0, 100.0), (-100.0, 100.0), (-100.0, 100.0), (-100.0, 100.0), (-100.0, 100.0), (-100.0, 100.0), (-100.0, 100.0), (-100.0, 100.0), (-100.0, 100.0), (-100.0, 100.0)]

  NIT    FC           OBJFUN            GNORM
    1     2     6.856414E-09     1.649166E-07
    2     3     6.742660E-09     1.626761E-07
    3     4     6.847565E-09     1.516101E-07
    4     6     1.001443E-08     1.465268E-07
    5     8     1.004991E-08     1.326833E-07
    6    11     1.008167E-08     1.314584E-07
    7    14     9.944225E-09     1.302079E-07
    8    19     9.900745E-09     1.301819E-07
    9    23     9.856619E-09     1.300301E-07
   10    26     9.836101E-09     1.288029E-07
   11    30     9.767086E-09     1.286799E-07
   12    33     9.716762E-09     1.274512E-07
   13    37     9.681466E-09     1.273295E-07
   14    41     9.636762E-09     1.272071E-07
   15    44     9.565624E-09     1.259764E-07
   16    48     9.548722E-09     1.258552E-07
   17    51     9.546974E-09     1.246457E-07
   18    55     8.655937E-09     1.245028E-07
   19    58     9.392844E-09     1.234682E-07
   20    62     9.353560E-09     1.233285E-07
   21    65     9.308316E-09     1.221182E-07
   22    69     9.294084E-09     1.219989E-07
   23    72     9.217429E-09     1.207883E-07
   24    76     9.159539E-09     1.205702E-07
   25    79     9.131185E-09     1.193793E-07
   26    83     9.178915E-09     1.190037E-07
   27    86     9.020079E-09     1.177930E-07
   28    90     8.989890E-09     1.176584E-07
   29    93     8.941262E-09     1.164813E-07
   30    95     6.653023E-09     1.153205E-07
Iteration limit reached    (Exit mode 9)
            Current function value: 6.6530229029999996e-09
            Iterations: 30
            Function evaluations: 95
            Gradient evaluations: 30

============================================

        Job resource usage summary 

                 Memory (GB)    NCPUs
 Requested  :       100            32
 Used       :         2 (peak)  31.66 (ave)

============================================
